<?xml version="1.0" encoding="UTF-8"?>

<!-- generated on 01/19/18 16:01:55 by SUMO polyconvert Version 0.32.0
<?xml version="1.0" encoding="UTF-8"?>

<configuration xmlns:xsi="http://www.w3.org/2001/XMLSchema-instance" xsi:noNamespaceSchemaLocation="http://sumo.dlr.de/xsd/polyconvertConfiguration.xsd">

    <input>
        <net-file value="map.net.xml"/>
        <osm-files value="map.osm"/>
        <type-file value="typemap.xml"/>
    </input>

    <output>
        <output-file value="map.poly.xml"/>
    </output>

    <processing>
        <poi-layer-offset value="5"/>
    </processing>

</configuration>
-->

<additional xmlns:xsi="http://www.w3.org/2001/XMLSchema-instance" xsi:noNamespaceSchemaLocation="http://sumo.dlr.de/xsd/additional_file.xsd">
    <location netOffset="-410138.33,-1435546.27" convBoundary="0.00,0.00,5810.45,10554.89" origBoundary="80.171412,12.984307,80.224890,13.079828" projParameter="+proj=utm +zone=44 +ellps=WGS84 +datum=WGS84 +units=m +no_defs"/>

    <poly id="214598741" type="commercial" color="209,209,204" fill="1" layer="-3.00" shape="4209.75,2670.35 4205.61,2686.04 4175.29,2678.54 4171.52,2733.13 4236.83,2747.85 4261.65,2728.93 4252.28,2716.56 4219.85,2673.75 4209.75,2670.35"/>
    <poly id="214599732" type="industrial" color="209,209,204" fill="1" layer="-3.00" shape="3590.52,3216.80 3788.99,3159.60 4000.70,3135.40 4041.81,3138.05 4161.59,3165.58 4182.72,2859.40 4169.21,2839.26 4171.38,2761.49 4171.52,2733.13 4175.29,2678.54 4205.61,2686.04 4209.75,2670.35 4087.10,2634.79 3786.28,2593.91 3741.96,2597.30 3727.29,2702.92 3555.44,2682.33 3534.15,2764.06 3537.13,2955.91 3553.16,3063.22 3590.52,3216.80"/>
    <poly id="214599807" type="commercial" color="209,209,204" fill="1" layer="-3.00" shape="4261.65,2728.93 4291.45,2766.94 4207.13,2833.41 4193.54,2834.49 4184.61,2762.88 4171.38,2761.49 4171.52,2733.13 4236.83,2747.85 4261.65,2728.93"/>
    <poly id="214599813" type="industrial" color="209,209,204" fill="1" layer="-3.00" shape="4195.02,2609.68 4262.29,2594.08 4270.19,2578.27 4297.43,2588.25 4318.85,2577.13 4279.68,2501.66 4271.71,2489.65 4180.61,2509.87 4195.02,2609.68"/>
    <poly id="218167010" type="amenity" color="237,199,199" fill="1" layer="-1.00" shape="3367.49,2125.04 3420.59,2124.87 3410.15,2247.34 3356.68,2241.62 3367.49,2125.04"/>
    <poly id="27769227" type="leisure" color="207,245,201" fill="1" layer="-2.00" shape="2805.93,2341.66 3242.91,2357.47 3148.39,2018.51 3123.38,1971.36 3088.93,1957.19 3055.40,1951.87 3019.79,1950.31 2793.84,1971.29 2751.76,1985.73 2706.40,2068.19 2782.34,2236.29 2805.93,2341.66"/>
    <poly id="28066870" type="building" color="255,230,230" fill="1" layer="-1.00" shape="3674.74,2478.13 3685.98,2396.31 3697.08,2398.23 3702.77,2409.18 3701.79,2425.23 3725.71,2426.64 3725.94,2402.79 3714.21,2402.35 3717.07,2386.85 3748.93,2388.18 3738.07,2487.18 3717.67,2485.08 3706.41,2486.96 3695.14,2481.94 3674.74,2478.13"/>
    <poly id="28225974" type="military" color="153,153,92" fill="1" layer="-3.00" shape="1440.21,1474.85 1089.08,1648.05 843.70,1815.53 969.98,2160.51 1037.87,2208.33 1066.31,2350.90 1092.59,2739.76 1211.33,2935.74 1521.09,2872.78 1499.96,2672.15 1418.00,2655.76 1385.22,2593.90 1585.05,2498.92 1583.85,2414.75 1734.63,2336.93 1912.04,2114.93 2028.88,2052.29 2018.45,1825.21 2101.40,1852.69 2109.42,1809.72 2176.49,1838.97 2218.74,1865.03 2321.45,1969.80 2423.12,2044.37 2436.77,2027.30 2545.55,2108.94 2573.57,2103.58 2660.90,2198.62 2678.40,2251.81 2713.11,2341.68 3251.52,2363.24 3254.87,2350.76 3153.03,2011.21 3109.31,1961.63 3039.10,1945.70 2770.70,1971.29 2735.53,1956.90 2642.74,1885.16 2229.96,1545.90 1969.23,1334.34 1910.48,1519.03 1792.22,1582.35 1512.44,1476.66 1440.21,1474.85"/>
    <poly id="317756553" type="amenity" color="237,199,199" fill="1" layer="-1.00" shape="4013.17,2544.78 3960.37,2540.95 3963.18,2582.78 4017.32,2588.59 4014.58,2564.70 4013.17,2544.78"/>
    <poly id="317756553#1" type="building" color="255,230,230" fill="1" layer="-1.00" shape="4013.17,2544.78 3960.37,2540.95 3963.18,2582.78 4017.32,2588.59 4014.58,2564.70 4013.17,2544.78"/>
    <poly id="32742657" type="water" color="181,209,209" fill="0" layer="-4.00" shape="3757.72,2608.82 3729.58,2826.42 3742.10,2949.05 3802.36,2984.94 3884.53,3132.16 3899.02,3151.65 3918.53,3149.37 3983.54,3298.90 4004.77,3331.67 4020.65,3352.90 4023.56,3387.11 4027.35,3409.30 4027.44,3438.89 4027.53,3467.56 4021.78,3518.34 4027.89,3540.30 4044.17,3560.62 4061.93,3576.18 4098.65,3590.34 4134.06,3602.27 4165.72,3608.64 4198.32,3615.01 4207.93,3647.07 4225.43,3653.77 4240.40,3678.69 4226.62,3734.23 4229.45,3749.94 4236.92,3756.39 4248.08,3753.58 4262.94,3742.43 4298.32,3744.18 4327.15,3736.69 4345.75,3733.86 4366.25,3737.49 4392.35,3752.21 4398.96,3782.71 4417.65,3807.63 4427.01,3823.31 4431.70,3834.40 4438.23,3842.71"/>
    <poly id="34159543" type="amenity" color="237,199,199" fill="1" layer="-1.00" shape="3313.41,2468.89 3305.59,2400.47 3353.96,2396.51 3376.38,2423.98 3374.38,2473.05 3313.41,2468.89"/>
    <poly id="34159552" type="amenity" color="237,199,199" fill="1" layer="-1.00" shape="3012.02,2672.25 3015.45,2558.84 3057.78,2561.28 3054.35,2674.05 3012.02,2672.25"/>
    <poly id="34159614" type="residential" color="235,235,227" fill="1" layer="-3.00" shape="2970.47,2684.00 2984.38,2888.20 2986.43,2940.37 3355.29,2912.15 3348.22,2809.96 3187.27,2820.15 3177.69,2685.27 2970.47,2684.00"/>
    <poly id="34159832" type="amenity" color="237,199,199" fill="1" layer="-1.00" shape="3684.90,2381.26 3663.57,2512.25 3749.59,2544.45 3757.68,2381.03 3684.90,2381.26"/>
    <poly id="34159832#1" type="commercial" color="209,209,204" fill="1" layer="-3.00" shape="3684.90,2381.26 3663.57,2512.25 3749.59,2544.45 3757.68,2381.03 3684.90,2381.26"/>
    <poly id="354478308" type="building" color="255,230,230" fill="1" layer="-1.00" shape="3384.46,2907.99 3384.09,2903.87 3385.25,2903.77 3385.08,2901.81 3386.27,2901.71 3385.80,2896.53 3384.62,2896.64 3384.36,2893.82 3383.76,2893.87 3383.48,2890.80 3384.08,2890.75 3383.81,2887.84 3385.26,2887.71 3384.53,2879.56 3383.89,2879.62 3383.68,2877.43 3382.42,2877.55 3381.84,2871.18 3383.56,2871.03 3382.89,2863.68 3381.95,2863.76 3381.74,2861.35 3381.14,2861.40 3380.79,2857.56 3375.58,2858.03 3375.95,2862.05 3373.83,2862.23 3374.70,2871.84 3376.63,2871.67 3377.27,2878.78 3375.34,2878.95 3376.20,2888.55 3378.31,2888.35 3378.91,2895.01 3376.81,2895.19 3377.70,2905.06 3379.88,2904.86 3380.19,2908.37 3384.46,2907.99"/>
    <poly id="354478384" type="building" color="255,230,230" fill="1" layer="-1.00" shape="3274.74,2475.94 3275.17,2492.95 3287.90,2492.62 3287.46,2475.61 3274.74,2475.94"/>
    <poly id="354478558" type="building" color="255,230,230" fill="1" layer="-1.00" shape="3309.73,2750.07 3308.84,2738.73 3292.34,2740.00 3293.22,2751.34 3309.73,2750.07"/>
    <poly id="354478654" type="building" color="255,230,230" fill="1" layer="-1.00" shape="3307.43,2737.93 3306.66,2728.00 3295.71,2728.84 3296.48,2738.77 3307.43,2737.93"/>
    <poly id="354478746" type="building" color="255,230,230" fill="1" layer="-1.00" shape="3400.48,2906.64 3400.20,2902.53 3401.37,2902.45 3401.24,2900.49 3402.43,2900.41 3402.07,2895.22 3400.89,2895.31 3400.69,2892.49 3400.09,2892.52 3399.87,2889.45 3400.48,2889.41 3400.28,2886.49 3401.73,2886.40 3401.17,2878.24 3400.52,2878.28 3400.37,2876.09 3399.10,2876.17 3398.67,2869.80 3399.36,2869.75 3399.23,2867.85 3400.26,2867.78 3399.88,2862.31 3398.58,2862.40 3398.43,2860.28 3396.50,2860.40 3396.23,2856.27 3392.01,2856.55 3392.29,2860.58 3391.03,2860.68 3391.16,2862.79 3389.58,2862.89 3389.99,2868.80 3391.70,2868.68 3391.83,2870.53 3393.46,2870.42 3393.93,2877.29 3392.99,2877.36 3393.10,2879.02 3392.11,2879.09 3392.65,2887.04 3394.77,2886.90 3395.22,2893.55 3394.51,2893.60 3394.64,2895.47 3393.23,2895.56 3393.66,2901.84 3394.59,2901.77 3394.71,2903.52 3395.97,2903.43 3396.21,2906.93 3400.48,2906.64"/>
    <poly id="354478754" type="building" color="255,230,230" fill="1" layer="-1.00" shape="3431.31,2904.48 3431.03,2900.37 3432.20,2900.28 3432.06,2898.33 3433.26,2898.25 3432.90,2893.06 3431.72,2893.14 3431.53,2890.31 3430.91,2890.36 3430.71,2887.28 3431.31,2887.24 3431.11,2884.33 3432.55,2884.24 3431.99,2876.06 3431.35,2876.11 3431.21,2873.92 3429.93,2874.00 3429.49,2867.62 3430.19,2867.58 3430.06,2865.67 3431.09,2865.60 3430.72,2860.14 3429.41,2860.23 3429.26,2858.11 3427.34,2858.24 3427.06,2854.09 3422.84,2854.38 3423.12,2858.42 3421.85,2858.50 3422.00,2860.62 3420.42,2860.73 3420.82,2866.63 3422.54,2866.52 3422.66,2868.36 3424.29,2868.26 3424.76,2875.12 3423.81,2875.18 3423.93,2876.85 3422.94,2876.92 3423.49,2884.87 3425.59,2884.72 3426.04,2891.39 3425.34,2891.44 3425.46,2893.29 3424.07,2893.40 3424.50,2899.67 3425.42,2899.61 3425.54,2901.34 3426.79,2901.26 3427.03,2904.77 3431.31,2904.48"/>
    <poly id="354478802" type="building" color="255,230,230" fill="1" layer="-1.00" shape="3354.92,2835.13 3358.15,2834.85 3358.39,2837.48 3369.21,2836.52 3369.14,2835.75 3371.07,2835.58 3370.96,2834.33 3374.71,2834.00 3374.90,2836.03 3383.94,2835.24 3383.83,2834.02 3386.93,2833.75 3386.86,2832.90 3391.47,2832.49 3391.65,2834.56 3399.63,2833.85 3399.55,2832.93 3403.31,2832.60 3403.19,2831.30 3406.58,2831.00 3406.71,2832.30 3409.06,2832.10 3409.14,2833.02 3416.90,2832.34 3416.81,2831.43 3419.61,2831.19 3419.47,2829.71 3421.66,2829.51 3421.80,2830.99 3424.50,2830.76 3424.58,2831.66 3433.36,2830.89 3433.26,2829.79 3436.78,2829.48 3436.62,2827.65 3439.12,2827.43 3438.72,2822.99 3434.24,2823.39 3434.13,2822.24 3432.09,2822.42 3432.00,2821.31 3425.52,2821.88 3425.59,2822.61 3423.55,2822.79 3423.70,2824.41 3417.64,2824.95 3417.49,2823.32 3415.10,2823.54 3415.03,2822.80 3408.98,2823.33 3409.05,2824.13 3406.99,2824.32 3407.12,2825.88 3402.93,2826.24 3402.79,2824.68 3399.77,2824.95 3399.70,2824.14 3392.22,2824.81 3392.31,2825.78 3390.31,2825.95 3390.46,2827.62 3385.15,2828.09 3385.00,2826.42 3382.94,2826.60 3382.85,2825.62 3375.88,2826.24 3375.99,2827.54 3374.06,2827.72 3374.14,2828.66 3369.20,2829.09 3369.12,2828.15 3367.14,2828.32 3367.03,2827.02 3359.54,2827.67 3359.60,2828.37 3357.54,2828.55 3357.68,2830.20 3354.51,2830.49 3354.92,2835.13"/>
    <poly id="354478839" type="building" color="255,230,230" fill="1" layer="-1.00" shape="3355.72,2848.82 3358.95,2848.54 3359.10,2850.18 3361.12,2850.01 3361.21,2850.99 3369.12,2850.29 3369.05,2849.52 3370.57,2849.38 3370.52,2848.76 3371.82,2848.65 3371.76,2848.02 3375.51,2847.68 3375.61,2848.80 3377.71,2848.62 3377.78,2849.54 3384.73,2848.93 3384.63,2847.71 3387.73,2847.44 3387.65,2846.59 3392.27,2846.18 3392.35,2847.06 3394.31,2846.88 3394.43,2848.07 3400.43,2847.54 3400.35,2846.62 3404.12,2846.30 3403.99,2844.99 3408.77,2844.57 3408.89,2845.88 3410.64,2845.72 3410.73,2846.65 3417.69,2846.03 3417.61,2845.12 3420.41,2844.88 3420.28,2843.40 3424.82,2843.00 3424.92,2844.08 3426.75,2843.92 3426.87,2845.22 3434.15,2844.58 3434.06,2843.48 3437.58,2843.17 3437.42,2841.34 3439.92,2841.12 3439.52,2836.68 3435.04,2837.08 3434.94,2835.93 3432.89,2836.11 3432.79,2835.00 3426.33,2835.57 3426.39,2836.31 3424.35,2836.48 3424.50,2838.10 3418.44,2838.64 3418.29,2837.02 3415.89,2837.23 3415.82,2836.49 3409.78,2837.02 3409.85,2837.82 3407.78,2838.01 3407.92,2839.57 3403.73,2839.93 3403.59,2838.37 3400.57,2838.64 3400.49,2837.83 3393.02,2838.49 3393.10,2839.47 3391.10,2839.64 3391.26,2841.31 3385.95,2841.78 3385.79,2840.11 3383.73,2840.29 3383.65,2839.31 3376.68,2839.93 3376.79,2841.23 3374.85,2841.41 3374.94,2842.34 3370.00,2842.78 3369.91,2841.84 3367.95,2842.01 3367.83,2840.71 3360.34,2841.36 3360.40,2842.06 3358.33,2842.24 3358.48,2843.89 3355.31,2844.18 3355.72,2848.82"/>
    <poly id="354518485" type="building" color="255,230,230" fill="1" layer="-1.00" shape="3236.65,2469.07 3235.08,2448.38 3226.59,2449.03 3228.17,2469.71 3236.65,2469.07"/>
    <poly id="354518531" type="building" color="255,230,230" fill="1" layer="-1.00" shape="3307.78,2927.75 3313.70,2926.83 3312.45,2918.97 3306.53,2919.90 3307.78,2927.75"/>
    <poly id="354518852" type="building" color="255,230,230" fill="1" layer="-1.00" shape="3204.38,2737.05 3221.03,2736.55 3220.77,2728.23 3204.13,2728.73 3204.38,2737.05"/>
    <poly id="354519251" type="building" color="255,230,230" fill="1" layer="-1.00" shape="3294.39,2724.09 3305.49,2723.24 3304.72,2713.27 3293.61,2714.12 3294.39,2724.09"/>
    <poly id="354519319" type="building" color="255,230,230" fill="1" layer="-1.00" shape="3298.77,2524.89 3317.65,2524.27 3317.21,2511.17 3298.33,2511.80 3298.77,2524.89"/>
    <poly id="354519399" type="building" color="255,230,230" fill="1" layer="-1.00" shape="3319.36,2520.70 3337.35,2520.56 3349.94,2512.51 3349.45,2499.49 3318.58,2500.68 3319.36,2520.70"/>
    <poly id="354519410" type="building" color="255,230,230" fill="1" layer="-1.00" shape="3415.16,2905.34 3414.88,2901.21 3416.04,2901.14 3415.92,2899.18 3417.11,2899.10 3416.75,2893.92 3415.57,2893.99 3415.37,2891.17 3414.77,2891.21 3414.55,2888.14 3415.16,2888.09 3414.96,2885.19 3416.39,2885.09 3415.84,2876.92 3415.20,2876.97 3415.05,2874.78 3413.78,2874.86 3413.34,2868.48 3414.04,2868.43 3413.91,2866.53 3414.94,2866.46 3414.56,2861.00 3413.25,2861.09 3413.11,2858.96 3411.18,2859.10 3410.90,2854.95 3406.69,2855.24 3406.97,2859.28 3405.70,2859.36 3405.84,2861.48 3404.26,2861.59 3404.67,2867.49 3406.38,2867.37 3406.51,2869.22 3408.14,2869.10 3408.60,2875.98 3407.67,2876.04 3407.78,2877.71 3406.78,2877.78 3407.33,2885.73 3409.44,2885.58 3409.90,2892.25 3409.18,2892.29 3409.32,2894.15 3407.91,2894.24 3408.34,2900.52 3409.27,2900.47 3409.39,2902.20 3410.64,2902.12 3410.88,2905.63 3415.16,2905.34"/>
    <poly id="354519414" type="building" color="255,230,230" fill="1" layer="-1.00" shape="3369.90,2909.11 3369.62,2904.98 3370.79,2904.91 3370.65,2902.95 3371.85,2902.87 3371.49,2897.69 3370.30,2897.77 3370.11,2894.94 3369.50,2894.98 3369.30,2891.91 3369.89,2891.86 3369.70,2888.96 3371.14,2888.86 3370.58,2880.69 3369.94,2880.74 3369.79,2878.55 3368.52,2878.63 3368.08,2872.25 3368.78,2872.20 3368.64,2870.30 3369.67,2870.23 3369.31,2864.77 3368.00,2864.86 3367.85,2862.74 3365.93,2862.87 3365.65,2858.72 3361.43,2859.01 3361.70,2863.05 3360.44,2863.13 3360.58,2865.25 3359.01,2865.35 3359.41,2871.26 3361.12,2871.14 3361.24,2872.99 3362.87,2872.89 3363.35,2879.75 3362.40,2879.81 3362.52,2881.48 3361.53,2881.55 3362.07,2889.50 3364.18,2889.35 3364.63,2896.02 3363.93,2896.06 3364.05,2897.92 3362.66,2898.02 3363.08,2904.29 3364.01,2904.24 3364.12,2905.97 3365.38,2905.89 3365.62,2909.40 3369.90,2909.11"/>
    <poly id="354519524" type="building" color="255,230,230" fill="1" layer="-1.00" shape="3352.23,2816.48 3355.46,2816.19 3355.61,2817.84 3357.63,2817.66 3357.72,2818.65 3365.64,2817.95 3365.57,2817.18 3367.09,2817.04 3367.03,2816.41 3368.32,2816.30 3368.26,2815.67 3372.03,2815.35 3372.13,2816.46 3374.22,2816.28 3374.30,2817.20 3381.25,2816.58 3381.14,2815.37 3384.25,2815.10 3384.17,2814.25 3388.78,2813.83 3388.86,2814.72 3390.83,2814.55 3390.93,2815.73 3396.95,2815.20 3396.86,2814.28 3400.62,2813.95 3400.51,2812.65 3405.29,2812.23 3405.40,2813.54 3407.16,2813.38 3407.24,2814.30 3414.21,2813.69 3414.13,2812.78 3416.92,2812.54 3416.79,2811.06 3421.33,2810.66 3421.42,2811.74 3423.27,2811.58 3423.38,2812.88 3430.67,2812.24 3430.56,2811.14 3434.09,2810.83 3433.93,2809.00 3436.42,2808.79 3436.03,2804.34 3431.54,2804.73 3431.44,2803.59 3429.40,2803.77 3429.30,2802.66 3422.84,2803.22 3422.90,2803.96 3420.87,2804.14 3421.00,2805.76 3414.94,2806.29 3414.81,2804.67 3412.40,2804.89 3412.33,2804.15 3406.28,2804.68 3406.36,2805.48 3404.29,2805.67 3404.43,2807.23 3400.24,2807.59 3400.10,2806.03 3397.08,2806.30 3397.00,2805.49 3389.52,2806.14 3389.61,2807.13 3387.62,2807.30 3387.76,2808.97 3382.45,2809.43 3382.31,2807.77 3380.25,2807.94 3380.16,2806.97 3373.18,2807.59 3373.31,2808.89 3371.37,2809.07 3371.46,2810.01 3366.51,2810.44 3366.42,2809.50 3364.46,2809.67 3364.34,2808.36 3356.85,2809.02 3356.91,2809.72 3354.84,2809.90 3354.99,2811.55 3351.82,2811.84 3352.23,2816.48"/>
    <poly id="354539745" type="building" color="255,230,230" fill="1" layer="-1.00" shape="4019.93,2701.65 4034.94,2702.60 4036.22,2682.57 4034.58,2682.46 4035.20,2672.80 4036.84,2672.90 4037.88,2656.82 4024.15,2655.95 4023.62,2664.15 4023.27,2664.13 4022.13,2681.88 4021.19,2681.83 4019.93,2701.65"/>
    <poly id="354539805" type="amenity" color="237,199,199" fill="1" layer="-1.00" shape="3861.31,2561.94 3868.91,2562.12 3868.97,2559.70 3870.68,2559.74 3870.87,2551.72 3869.06,2551.68 3869.12,2548.64 3861.64,2548.46 3861.31,2561.94"/>
    <poly id="354539805#1" type="building" color="255,230,230" fill="1" layer="-1.00" shape="3861.31,2561.94 3868.91,2562.12 3868.97,2559.70 3870.68,2559.74 3870.87,2551.72 3869.06,2551.68 3869.12,2548.64 3861.64,2548.46 3861.31,2561.94"/>
    <poly id="354539816" type="building" color="255,230,230" fill="1" layer="-1.00" shape="3947.81,2520.53 3963.29,2523.59 3964.71,2516.52 3949.22,2513.46 3947.81,2520.53"/>
    <poly id="354539832" type="building" color="255,230,230" fill="1" layer="-1.00" shape="3773.44,2480.46 3793.07,2481.81 3793.90,2469.87 3774.27,2468.52 3773.44,2480.46"/>
    <poly id="354539836" type="building" color="255,230,230" fill="1" layer="-1.00" shape="3938.83,2941.17 3967.15,2943.78 3968.72,2927.04 3940.39,2924.43 3938.83,2941.17"/>
    <poly id="354539839" type="building" color="255,230,230" fill="1" layer="-1.00" shape="3803.35,2545.30 3827.21,2546.99 3829.67,2512.79 3805.80,2511.10 3803.35,2545.30"/>
    <poly id="354539847" type="building" color="255,230,230" fill="1" layer="-1.00" shape="4027.08,2860.50 4050.27,2861.28 4050.65,2850.48 4027.46,2849.68 4027.08,2860.50"/>
    <poly id="354539857" type="building" color="255,230,230" fill="1" layer="-1.00" shape="3763.81,2390.53 3762.42,2403.90 3775.88,2405.28 3777.27,2391.91 3763.81,2390.53"/>
    <poly id="354539859" type="building" color="255,230,230" fill="1" layer="-1.00" shape="4025.29,2959.66 4034.01,2959.91 4034.53,2942.63 4025.80,2942.38 4025.29,2959.66"/>
    <poly id="354539878" type="building" color="255,230,230" fill="1" layer="-1.00" shape="3777.49,2403.13 3797.80,2404.80 3798.63,2394.85 3778.31,2393.18 3777.49,2403.13"/>
    <poly id="354539888" type="building" color="255,230,230" fill="1" layer="-1.00" shape="3953.39,2848.07 3950.15,2912.39 3965.74,2913.16 3968.97,2848.84 3953.39,2848.07"/>
    <poly id="354539892" type="building" color="255,230,230" fill="1" layer="-1.00" shape="3857.43,2265.14 3877.30,2264.29 3877.05,2258.44 3857.17,2259.29 3857.43,2265.14"/>
    <poly id="354539899" type="building" color="255,230,230" fill="1" layer="-1.00" shape="3878.88,2316.63 3879.14,2305.07 3866.66,2304.79 3866.39,2316.34 3878.88,2316.63"/>
    <poly id="354539921" type="building" color="255,230,230" fill="1" layer="-1.00" shape="3996.67,2847.43 3993.63,2879.67 4016.69,2881.81 4019.73,2849.56 3996.67,2847.43"/>
    <poly id="354539947" type="building" color="255,230,230" fill="1" layer="-1.00" shape="3882.59,2559.32 3893.82,2560.19 3895.17,2543.09 3883.94,2542.22 3882.59,2559.32"/>
    <poly id="354539950" type="building" color="255,230,230" fill="1" layer="-1.00" shape="4026.50,2881.70 4053.60,2883.62 4054.56,2870.41 4027.44,2868.48 4026.50,2881.70"/>
    <poly id="354539995" type="building" color="255,230,230" fill="1" layer="-1.00" shape="3811.38,2420.65 3828.98,2421.60 3829.57,2410.97 3811.96,2410.02 3811.38,2420.65"/>
    <poly id="354539999" type="building" color="255,230,230" fill="1" layer="-1.00" shape="4006.29,2756.34 4028.61,2757.98 4029.39,2747.43 4007.07,2745.80 4006.29,2756.34"/>
    <poly id="354540004" type="building" color="255,230,230" fill="1" layer="-1.00" shape="3751.29,2544.64 3755.11,2547.53 3765.26,2547.75 3767.01,2549.68 3774.11,2550.48 3774.75,2548.74 3777.14,2549.04 3777.61,2550.97 3785.32,2551.41 3785.76,2535.43 3752.14,2533.11 3751.29,2544.64"/>
    <poly id="354540009" type="building" color="255,230,230" fill="1" layer="-1.00" shape="3937.15,2954.53 3965.19,2956.57 3965.92,2946.80 3937.88,2944.76 3937.15,2954.53"/>
    <poly id="354540034" type="building" color="255,230,230" fill="1" layer="-1.00" shape="4054.09,2655.49 4064.41,2655.87 4065.23,2633.32 4054.92,2632.94 4054.09,2655.49"/>
    <poly id="354540037" type="building" color="255,230,230" fill="1" layer="-1.00" shape="3997.27,2696.74 4014.44,2698.10 4016.43,2673.44 3999.27,2672.08 3997.27,2696.74"/>
    <poly id="354540058" type="building" color="255,230,230" fill="1" layer="-1.00" shape="3857.36,2266.70 3857.68,2273.68 3877.21,2272.77 3876.87,2265.78 3857.36,2266.70"/>
    <poly id="354540073" type="building" color="255,230,230" fill="1" layer="-1.00" shape="4067.20,2536.64 4072.89,2571.71 4093.60,2574.14 4108.71,2572.61 4091.46,2532.75 4067.20,2536.64"/>
    <poly id="354540080" type="building" color="255,230,230" fill="1" layer="-1.00" shape="4075.21,2722.52 4095.09,2723.31 4095.99,2700.73 4084.89,2700.29 4084.36,2713.34 4075.59,2712.99 4075.21,2722.52"/>
    <poly id="354540090" type="building" color="255,230,230" fill="1" layer="-1.00" shape="4057.56,2792.45 4099.26,2795.80 4099.83,2788.74 4097.89,2788.58 4098.43,2781.88 4057.21,2778.57 4056.50,2787.26 4057.97,2787.38 4057.56,2792.45"/>
    <poly id="354540098" type="building" color="255,230,230" fill="1" layer="-1.00" shape="4056.05,2678.04 4093.09,2678.79 4093.55,2655.76 4073.57,2655.37 4073.43,2661.81 4078.06,2661.89 4078.01,2664.78 4056.32,2664.35 4056.05,2678.04"/>
    <poly id="354570347" type="building" color="255,230,230" fill="1" layer="-1.00" shape="3658.80,2309.64 3672.96,2309.87 3673.01,2307.32 3676.30,2307.37 3676.38,2302.33 3679.76,2302.39 3679.83,2297.91 3666.52,2297.69 3666.43,2303.33 3658.91,2303.21 3658.80,2309.64"/>
    <poly id="354570353" type="building" color="255,230,230" fill="1" layer="-1.00" shape="3550.08,2281.15 3563.37,2280.96 3562.74,2235.42 3556.86,2234.80 3554.44,2235.81 3552.82,2238.54 3552.36,2245.86 3550.87,2245.88 3550.96,2252.80 3549.68,2252.81 3550.08,2281.15"/>
    <poly id="354570358" type="building" color="255,230,230" fill="1" layer="-1.00" shape="4175.62,2716.35 4201.08,2722.68 4200.41,2725.36 4207.30,2727.07 4208.04,2724.17 4235.59,2731.01 4241.74,2706.58 4225.72,2702.60 4227.02,2697.45 4201.88,2691.21 4200.48,2696.78 4181.72,2692.12 4175.62,2716.35"/>
    <poly id="354570363" type="building" color="255,230,230" fill="1" layer="-1.00" shape="3483.51,2263.10 3507.54,2262.04 3506.91,2248.08 3482.88,2249.15 3483.51,2263.10"/>
    <poly id="354570388" type="building" color="255,230,230" fill="1" layer="-1.00" shape="3029.49,2419.23 3042.63,2419.59 3043.40,2392.07 3030.24,2391.72 3029.49,2419.23"/>
    <poly id="354570405" type="building" color="255,230,230" fill="1" layer="-1.00" shape="3089.09,2480.48 3088.48,2492.20 3097.98,2492.69 3098.59,2480.97 3089.09,2480.48"/>
    <poly id="354570413" type="building" color="255,230,230" fill="1" layer="-1.00" shape="3593.18,2408.84 3609.78,2410.80 3610.80,2402.26 3594.21,2400.30 3593.18,2408.84"/>
    <poly id="354570438" type="building" color="255,230,230" fill="1" layer="-1.00" shape="3646.57,2310.08 3646.42,2321.45 3658.65,2321.61 3658.81,2310.24 3646.57,2310.08"/>
    <poly id="354570454" type="building" color="255,230,230" fill="1" layer="-1.00" shape="3526.55,2260.76 3537.42,2260.45 3536.89,2242.49 3526.02,2242.81 3526.55,2260.76"/>
    <poly id="354570476" type="building" color="255,230,230" fill="1" layer="-1.00" shape="3109.15,2410.64 3092.38,2410.79 3092.54,2430.37 3109.31,2430.24 3109.15,2410.64"/>
    <poly id="354570485" type="building" color="255,230,230" fill="1" layer="-1.00" shape="3066.22,2442.19 3066.56,2456.96 3080.87,2456.63 3080.53,2441.86 3066.22,2442.19"/>
    <poly id="354570498" type="building" color="255,230,230" fill="1" layer="-1.00" shape="3650.33,2405.84 3666.72,2406.59 3667.08,2398.63 3650.69,2397.88 3650.33,2405.84"/>
    <poly id="354570527" type="building" color="255,230,230" fill="1" layer="-1.00" shape="4130.51,2334.26 4136.43,2347.64 4161.96,2336.49 4156.05,2323.11 4130.51,2334.26"/>
    <poly id="354570532" type="building" color="255,230,230" fill="1" layer="-1.00" shape="3665.94,2255.33 3675.65,2255.89 3676.28,2245.53 3666.56,2244.96 3665.94,2255.33"/>
    <poly id="354570581" type="building" color="255,230,230" fill="1" layer="-1.00" shape="4177.42,2356.00 4194.83,2348.28 4190.40,2338.42 4172.98,2346.14 4177.42,2356.00"/>
    <poly id="354570590" type="building" color="255,230,230" fill="1" layer="-1.00" shape="4150.21,2389.95 4154.70,2402.87 4163.97,2399.67 4159.47,2386.76 4150.21,2389.95"/>
    <poly id="354570599" type="building" color="255,230,230" fill="1" layer="-1.00" shape="4140.85,2598.18 4173.91,2605.61 4176.12,2595.88 4143.07,2588.45 4140.85,2598.18"/>
    <poly id="354570634" type="building" color="255,230,230" fill="1" layer="-1.00" shape="3580.46,2380.61 3578.26,2394.72 3591.01,2396.69 3593.21,2382.57 3580.46,2380.61"/>
    <poly id="354570664" type="building" color="255,230,230" fill="1" layer="-1.00" shape="3160.26,2402.94 3174.52,2403.50 3175.17,2386.98 3160.91,2386.42 3160.26,2402.94"/>
    <poly id="354570681" type="building" color="255,230,230" fill="1" layer="-1.00" shape="3016.79,2449.69 3039.18,2450.82 3039.78,2439.41 3017.39,2438.27 3016.79,2449.69"/>
    <poly id="354570687" type="building" color="255,230,230" fill="1" layer="-1.00" shape="3057.72,2521.07 3086.85,2522.58 3087.69,2506.80 3058.56,2505.28 3057.72,2521.07"/>
    <poly id="354570771" type="building" color="255,230,230" fill="1" layer="-1.00" shape="3627.55,2398.86 3617.98,2398.78 3618.01,2414.10 3627.40,2416.81 3627.55,2398.86"/>
    <poly id="354570774" type="building" color="255,230,230" fill="1" layer="-1.00" shape="3647.82,2275.81 3657.52,2276.39 3658.67,2257.32 3648.96,2256.74 3647.82,2275.81"/>
    <poly id="354570792" type="building" color="255,230,230" fill="1" layer="-1.00" shape="3604.68,2363.28 3615.29,2362.84 3615.02,2356.36 3604.41,2356.80 3604.68,2363.28"/>
    <poly id="354570854" type="building" color="255,230,230" fill="1" layer="-1.00" shape="3955.26,2721.67 3975.68,2722.42 3976.20,2708.43 3955.77,2707.68 3955.26,2721.67"/>
    <poly id="354570923" type="building" color="255,230,230" fill="1" layer="-1.00" shape="3514.11,2262.23 3525.12,2261.76 3524.33,2243.23 3513.32,2243.68 3514.11,2262.23"/>
    <poly id="354570926" type="building" color="255,230,230" fill="1" layer="-1.00" shape="3860.33,2449.51 3878.50,2451.45 3880.24,2435.26 3862.08,2433.33 3860.33,2449.51"/>
    <poly id="354570931" type="building" color="255,230,230" fill="1" layer="-1.00" shape="3047.61,2395.06 3060.56,2395.41 3061.04,2378.14 3048.09,2377.78 3047.61,2395.06"/>
    <poly id="354570934" type="building" color="255,230,230" fill="1" layer="-1.00" shape="3543.35,2383.97 3540.12,2401.11 3557.56,2404.36 3560.80,2387.22 3543.35,2383.97"/>
    <poly id="354570954" type="building" color="255,230,230" fill="1" layer="-1.00" shape="3547.13,2301.01 3558.72,2300.54 3558.06,2284.43 3546.48,2284.90 3547.13,2301.01"/>
    <poly id="354570957" type="building" color="255,230,230" fill="1" layer="-1.00" shape="3647.72,2419.08 3665.33,2420.13 3666.08,2407.69 3648.47,2406.64 3647.72,2419.08"/>
    <poly id="354570987" type="building" color="255,230,230" fill="1" layer="-1.00" shape="3634.72,2401.63 3633.75,2417.72 3643.35,2418.29 3644.33,2402.20 3634.72,2401.63"/>
    <poly id="354571002" type="building" color="255,230,230" fill="1" layer="-1.00" shape="3559.87,2316.92 3569.97,2316.48 3569.02,2294.80 3558.93,2295.24 3559.87,2316.92"/>
    <poly id="354571035" type="building" color="255,230,230" fill="1" layer="-1.00" shape="3112.37,2414.04 3112.36,2431.46 3136.58,2431.47 3136.58,2414.05 3112.37,2414.04"/>
    <poly id="354571044" type="building" color="255,230,230" fill="1" layer="-1.00" shape="3254.69,2572.49 3280.58,2570.79 3279.88,2560.23 3253.99,2561.93 3254.69,2572.49"/>
    <poly id="354571047" type="building" color="255,230,230" fill="1" layer="-1.00" shape="3573.52,2374.37 3583.73,2373.14 3579.87,2341.59 3569.66,2342.83 3573.52,2374.37"/>
    <poly id="354571050" type="building" color="255,230,230" fill="1" layer="-1.00" shape="3295.25,2605.72 3296.74,2629.96 3307.24,2629.31 3305.77,2605.09 3295.25,2605.72"/>
    <poly id="354571052" type="building" color="255,230,230" fill="1" layer="-1.00" shape="3631.55,2385.90 3638.32,2385.68 3637.74,2367.97 3630.96,2368.19 3631.55,2385.90"/>
    <poly id="354571054" type="building" color="255,230,230" fill="1" layer="-1.00" shape="3342.32,2285.42 3340.34,2300.90 3379.76,2305.87 3381.73,2290.39 3342.32,2285.42"/>
    <poly id="354571066" type="building" color="255,230,230" fill="1" layer="-1.00" shape="3646.84,2395.30 3657.06,2394.97 3656.11,2366.47 3645.90,2366.80 3646.84,2395.30"/>
    <poly id="354571095" type="building" color="255,230,230" fill="1" layer="-1.00" shape="3139.46,2383.31 3138.65,2404.61 3150.88,2405.07 3151.70,2383.77 3139.46,2383.31"/>
    <poly id="354571098" type="building" color="255,230,230" fill="1" layer="-1.00" shape="3612.93,2447.02 3620.83,2447.71 3622.68,2426.43 3614.80,2425.76 3612.93,2447.02"/>
    <poly id="354571108" type="building" color="255,230,230" fill="1" layer="-1.00" shape="3211.23,2626.35 3211.61,2636.85 3224.49,2636.38 3224.11,2625.89 3211.23,2626.35"/>
    <poly id="354571111" type="building" color="255,230,230" fill="1" layer="-1.00" shape="3659.34,2346.73 3659.51,2357.84 3675.09,2357.59 3674.91,2346.48 3659.34,2346.73"/>
    <poly id="354571123" type="building" color="255,230,230" fill="1" layer="-1.00" shape="3601.78,2374.75 3611.38,2374.72 3611.28,2366.68 3601.16,2366.81 3601.78,2374.75"/>
    <poly id="354571146" type="building" color="255,230,230" fill="1" layer="-1.00" shape="4157.65,2407.48 4161.88,2422.48 4170.41,2420.10 4166.16,2405.10 4157.65,2407.48"/>