<?xml version="1.0" encoding="UTF-8"?>

<!-- generated on 01/19/18 16:03:28 by SUMO duarouter Version 0.32.0
<?xml version="1.0" encoding="UTF-8"?>

<configuration xmlns:xsi="http://www.w3.org/2001/XMLSchema-instance" xsi:noNamespaceSchemaLocation="http://sumo.dlr.de/xsd/duarouterConfiguration.xsd">

    <input>
        <net-file value="map.net.xml"/>
        <route-files value="trips.trips.xml"/>
    </input>

    <output>
        <output-file value="map.rou.xml"/>
        <alternatives-output value="map.rou.alt.xml"/>
    </output>

    <processing>
        <ignore-errors value="true"/>
    </processing>

    <time>
        <begin value="0"/>
        <end value="100.0"/>
    </time>

    <report>
        <no-warnings value="true"/>
        <no-step-log value="true"/>
    </report>

</configuration>
-->

<routes xmlns:xsi="http://www.w3.org/2001/XMLSchema-instance" xsi:noNamespaceSchemaLocation="http://sumo.dlr.de/xsd/routes_file.xsd">
    <vehicle id="0" depart="0.00">
        <route edges="-27443088 -196106012#0 -196106259 -196105859 28071747#2 27443120#0 -217834279 84084648#4 23642051#0 -23642051#0"/>
    </vehicle>
    <vehicle id="1" depart="1.00">
        <route edges="-23641229#0 25646322#2 96794134#0 96794134#1 27769229#2 28071747#1 28071747#2 23642048#0 23642048#1 84084648#6 84084670#0 84084670#1 22688411#1"/>
    </vehicle>
    <vehicle id="2" depart="2.00">
        <route edges="214599115 28206829#1 28206829#2 28206829#3 28206829#4 28206829#5 204209807 204209806 204209805#0 204209805#1 25646322#0 -83826841#1 -83826841#0 -422416895 -28067271#1 -28067271#0 23641752#1 23641752#2 214413798#0 -32456590#2 -32456590#1 -32456590#0 23634183#4 23634187#3"/>
    </vehicle>
    <vehicle id="3" depart="3.00">
        <route edges="25646322#0 25646322#1 25646322#2 96794134#0 96794134#1 27769229#2"/>
    </vehicle>
    <vehicle id="4" depart="4.00">
        <route edges="34159546 -196106259 -196105859 28071747#2 27443120#0 -217834279 84084648#4 23642051#0 -23642051#0"/>
    </vehicle>
    <vehicle id="5" depart="5.00">
        <route edges="-30681495#1 -30681495#0 28206829#3 28206829#4 28206829#5 204209807 204209806 204209805#0 204209805#1 25646322#0 -83826841#1 -83826841#0 -422416895 -28067271#1 -28067271#0 23641752#1 23641752#2 -23634183#8 -23634183#7"/>
    </vehicle>
    <vehicle id="6" depart="6.00">
        <route edges="-23642049 23642048#1 84084648#6 84084648#7 28067234#0 28067234#1 28067239 23641752#2 214413798#0 -32456590#2 -32456590#1 -32456590#0 23634183#4 23634187#3"/>
    </vehicle>
    <vehicle id="10" depart="10.00">
        <route edges="-190400855 34160400#0 34160400#1 34160400#2 -23641226#2 -23641226#1 -23641226#0 -83826841#1 -83826841#0 -422416895 -28067271#1 -190400375 84084670#1 22688411#1 22688411#2"/>
    </vehicle>
    <vehicle id="11" depart="11.00">
        <route edges="34160400#2 -34160400#2 -34160400#1 -34160400#0 190400855 -190400855"/>
    </vehicle>
    <vehicle id="12" depart="12.00">
        <route edges="27769330#1"/>
    </vehicle>
    <vehicle id="13" depart="13.00">
        <route edges="27769330#1 27769229#0 27769229#1 27769229#2 28071747#1 28071747#2 27443120#0 -217834279 -23642050 23642053#1 23642053#2"/>
    </vehicle>
    <vehicle id="14" depart="14.00">
        <route edges="204209805#0 204209805#1 25646322#0 -83826841#1"/>
    </vehicle>
    <vehicle id="15" depart="15.00">
        <route edges="84084648#0 84084648#1 84084648#2 84084648#3 217834279 27443120#1 27443120#2"/>
    </vehicle>
    <vehicle id="17" depart="17.00">
        <route edges="23642050 84084648#4 84084648#5 84084648#6 84084670#0 190400375 28067271#1 422416895 83826841#0 83826841#1 23641226#0 23641226#1 23641226#2 -34160400#2 -34160400#1 -34160400#0 23641256"/>
    </vehicle>
    <vehicle id="18" depart="18.00">
        <route edges="27443120#0 -217834279 84084648#4 84084648#5 84084648#6 84084648#7 28067234#0 28067234#1 28067239 23641752#2 -23634183#8 -23634183#7 23634183#7"/>
    </vehicle>
    <vehicle id="20" depart="20.00">
        <route edges="-196105859 196105859 196106259 196106012#0 196106012#1 32553945#1 27769229#1 -96794134#1 -96794134#0 96794134#0"/>
    </vehicle>
    <vehicle id="22" depart="22.00">
        <route edges="28078045#0 28078045#1 28077972 27769230#1 214413840 28071747#0 28071747#1 28071747#2 23642048#0 23642048#1 84084648#6 84084670#0 190400375 28067271#1 422416895 83826841#0 83826841#1 23641226#0 23641226#1 23641226#2 -34160400#2 -34160400#1 -34160400#0 190400855 28206829#4 28206829#5 204209807 204209810#0 204209810#1 -28224190"/>
    </vehicle>
    <vehicle id="24" depart="24.00">
        <route edges="-23641255 34160400#2 -23641226#2 -23641226#1 -23641226#0 25646322#1 23641229#0 23641229#1 23641229#2 23641229#3 -34159830 23641250#2"/>
    </vehicle>
    <vehicle id="26" depart="26.00">
        <route edges="28067271#1 -28067271#1 -28067271#0 23641752#1 23641752#2 214413798#0 -32456590#2 -32456590#1 -32456590#0 -23634183#3 -23634183#2 -23634183#1 -214599126"/>
    </vehicle>
    <vehicle id="27" depart="27.00">
        <route edges="32551518 204209805#0 204209805#1 25646322#0 -83826841#1 -83826841#0 -422416895 -28067271#1 -28067271#0 23641752#1 23641752#2 214413798#0 -32456590#2 -32456590#1 -32456590#0 23634183#4 -23634187#2"/>
    </vehicle>
    <vehicle id="28" depart="28.00">
        <route edges="-23641254 -23641229#0 25646322#2 96794134#0 96794134#1 27769229#2 28071747#1 28071747#2 23642048#0 23642048#1 84084648#6 84084648#7 28067234#0 28067234#1 28067239 23641752#2 214413798#0 -32456590#2 -32456590#1 -32456590#0"/>
    </vehicle>
    <vehicle id="30" depart="30.00">
        <route edges="27769330#0 27769330#1 27769330#2 28078046 214413823 28071809 23642057 214413798#0 -32456590#2 -32456590#1 -32456590#0 -23634183#3 -23634183#2 -23634183#1 23634183#1"/>
    </vehicle>
    <vehicle id="31" depart="31.00">
        <route edges="23634187#2 23634183#5 23634183#6"/>
    </vehicle>
    <vehicle id="34" depart="34.00">
        <route edges="27769330#1 27769229#0 27769229#1 -96794134#1 -422416892#1 -422416892#0 83826841#1 23641226#0 -23641254"/>
    </vehicle>
    <vehicle id="35" depart="35.00">
        <route edges="27769330#0 27769330#1 27769330#2 28078046 214413823 28071809 23642057 214413798#0 -32456590#2 -32456590#1 -32456590#0 -23634183#3 -23634183#2 -23634183#1"/>
    </vehicle>
    <vehicle id="36" depart="36.00">
        <route edges="28224190 204209808 204209807 204209806 204209805#0 204209805#1 25646322#0 -83826841#1 -83826841#0 -422416895 -28067271#1 -28067271#0 23641752#1 23641752#2 214413798#0 -32456590#2 -32456590#1 -32456590#0 -23634183#3"/>
    </vehicle>
    <vehicle id="37" depart="37.00">
        <route edges="-204235531 28206829#5 204209807 204209806 204209805#0 204209805#1 25646322#0 -83826841#1 -83826841#0 -422416895 -28067271#1 -28067271#0 23641752#1 23641752#2 -23634183#8 -23634183#7 -23634183#6 23634187#0 23634186#4"/>
    </vehicle>
    <vehicle id="38" depart="38.00">
        <route edges="32553945#1 27769229#1 27769229#2 28071747#1 28071747#2 27443120#0 -217834279 -23642050 23642050"/>
    </vehicle>
    <vehicle id="40" depart="40.00">
        <route edges="27769330#0 27769330#1 27769229#0 27769229#1 -96794134#1 -96794134#0 25646322#3 23641250#0 23641251 23641229#2 23641229#3 23641229#4 23641229#5 23641229#6"/>
    </vehicle>
    <vehicle id="41" depart="41.00">
        <route edges="28077972 27769230#1 214413840 28071747#0 28071747#1 28071747#2 27443120#0 -217834279"/>
    </vehicle>
    <vehicle id="42" depart="42.00">
        <route edges="25646322#1 25646322#2 96794134#0 -422416892#1 -422416892#0 83826841#1 -83826841#1"/>
    </vehicle>
    <vehicle id="43" depart="43.00">
        <route edges="27769330#1 27769330#2 28078046 214413823 231391866 22688411#0 22688411#1"/>
    </vehicle>
    <vehicle id="44" depart="44.00">
        <route edges="-28067271#1 28067271#1 422416895 83826841#0 83826841#1 23641226#0 23641226#1 23641226#2 -34160400#2 -34160400#1 -34160400#0 190400855 28206829#4 28206829#5 204209807 204209806 204209805#0"/>
    </vehicle>
    <vehicle id="47" depart="47.00">
        <route edges="-196255510#1 -27443088 -196106012#0 -196106259 -196105859 28071747#2 23642048#0 23642048#1 84084648#6 84084648#7 28067234#0 28067234#1 28067239 23641752#2 214413798#0 -32456590#2 -32456590#1 -32456590#0 23634183#4 23634187#3"/>
    </vehicle>
    <vehicle id="50" depart="50.00">
        <route edges="217834279 -217834279 -23642050"/>
    </vehicle>
    <vehicle id="52" depart="52.00">
        <route edges="27769330#0 27769330#1 27769330#2 28078046 214413823 28071809 23642057 214413798#0 -32456590#2 -32456590#1 -32456590#0 -23634183#3 -23634183#2 -23634183#1 -214599126"/>
    </vehicle>
    <vehicle id="57" depart="57.00">
        <route edges="27769330#1 27769330#2 28078046 214413823 28071809 23642057 -23634183#8 -23634183#7"/>
    </vehicle>
    <vehicle id="58" depart="58.00">
        <route edges="204209806 204209805#0 204209805#1 25646322#0 23641226#0 23641226#1 23641226#2 23641226#3 34160398"/>
    </vehicle>
    <vehicle id="59" depart="59.00">
        <route edges="-23642059 23642053#2 84084648#3 84084648#4 84084648#5 84084648#6 84084670#0 190400375 28067271#1 422416895 83826841#0 83826841#1 23641226#0 -23641254"/>
    </vehicle>
    <vehicle id="60" depart="60.00">
        <route edges="25646322#1 25646322#2 96794134#0 -422416892#1 -422416892#0 83826841#1 23641226#0 23641226#1 23641226#2 -34160400#2 -34160400#1 -34160400#0 190400855 28206829#4 28206829#5 204209807 204209810#0 204209810#1 -28224190"/>
    </vehicle>
    <vehicle id="63" depart="63.00">
        <route edges="204209806 204209805#0 204209805#1 23642056 27769230#0 27769230#1 214413840 28071747#0 28071747#1 196105859 196106259 196106012#0 196106012#1 32553945#1"/>
    </vehicle>
    <vehicle id="64" depart="64.00">
        <route edges="23641256 204209805#1 23642056 27769230#0 27769230#1 214413840 28071747#0 28071747#1 28071747#2 27443120#0 -217834279 -23642050"/>
    </vehicle>
    <vehicle id="65" depart="65.00">
        <route edges="23641752#0 28067271#0 28067271#1 422416895 83826841#0 83826841#1 25646322#1 25646322#2 96794134#0 96794134#1 27769229#2 28071747#1 28071747#2 23642048#0 23642048#1 84084648#6 84084648#7 28067234#0 23641748 28078045#1 28077972 27769230#1 28077971"/>
    </vehicle>
    <vehicle id="66" depart="66.00">
        <route edges="32456609#0 32456609#1 23634183#2 23634183#3 32456590#0 32456590#1 32456590#2 -32456590#2"/>
    </vehicle>
    <vehicle id="67" depart="67.00">
        <route edges="23641254 -23641226#0 -83826841#1 -83826841#0 -422416895 -28067271#1 -28067271#0 23641752#1 23641752#2 -23634183#8 -23634183#7 -23634183#6 23634187#0 23634187#1"/>
    </vehicle>
    <vehicle id="68" depart="68.00">
        <route edges="27769330#1 27769229#0 27769229#1 -96794134#1 -422416892#1 -422416892#0 83826841#1 23641226#0 23641226#1 23641226#2 -34160400#2 -34160400#1 -34160400#0 23641256 204209805#1"/>
    </vehicle>
    <vehicle id="69" depart="69.00">
        <route edges="-422416892#1 -422416896 -422416895 -28067271#1 -28067271#0 23641752#1"/>
    </vehicle>
    <vehicle id="74" depart="74.00">
        <route edges="204209805#0 204209805#1 23642056 27769230#0 27769230#1 214413840 28071747#0 28071747#1 196105859 196106259 196106012#0 196106012#1 -32553945#0"/>
    </vehicle>
    <vehicle id="76" depart="76.00">
        <route edges="32551518 204209805#0 204209805#1 23642056 27769230#0 27769230#1 214413840 28071747#0 28071747#1 196105859 196106259 196106012#0 196106012#1 -32553945#0"/>
    </vehicle>
    <vehicle id="79" depart="79.00">
        <route edges="28078045#0 28078045#1 28077972 27769230#1 214413840 28071747#0 28071747#1 28071747#2 23642048#0 23642048#1 84084648#6 84084648#7 28067234#0 28067234#1 28067239 23641752#2 214413798#0 -32456590#2 -32456590#1 -32456590#0 -23634183#3 -23634183#2 -23634183#1 -214599126"/>
    </vehicle>
    <vehicle id="80" depart="80.00">
        <route edges="-23641226#5 -23641226#4 -23641226#3 -23641226#2 -23641226#1 -23641226#0 25646322#1 25646322#2 96794134#0 96794134#1 27769229#2 28071747#1 28071747#2 23642048#0 23642048#1 84084648#6 84084648#7 28067234#0 23641748 28078045#1 28077972 27769230#1 214413840"/>
    </vehicle>
    <vehicle id="82" depart="82.00">
        <route edges="196106012#1 32553945#1 27769229#1 -96794134#1 -422416892#1 -422416896 -422416895 -28067271#1 -28067271#0 23641752#1"/>
    </vehicle>
    <vehicle id="83" depart="83.00">
        <route edges="27769330#0 27769330#1 27769229#0 -32553945#1 -196106012#1 27443088 -196255510#0"/>
    </vehicle>
    <vehicle id="84" depart="84.00">
        <route edges="27769330#2 28078046"/>
    </vehicle>
    <vehicle id="87" depart="87.00">
        <route edges="-30681496 28206829#2 28206829#3 28206829#4 28206829#5 204209807 204209806 204209805#0 204209805#1 23642056 27769230#0 27769230#1 214413840 28071747#0 28071747#1 28071747#2 27443120#0 -217834279 217834279"/>
    </vehicle>
    <vehicle id="88" depart="88.00">
        <route edges="27769330#1 27769229#0 27769229#1 -96794134#1 -422416892#1 -422416892#0 83826841#1 23641226#0 23641226#1 23641226#2 -34160400#2 -34160400#1 -34160400#0 190400855 -190400855"/>
    </vehicle>
    <vehicle id="90" depart="90.00">
        <route edges="-217834279 84084648#4 84084648#5 84084648#6 84084670#0 190400375 28067271#1 422416895 83826841#0 83826841#1 25646322#1 23641229#0 23641229#1 23641229#2 23641229#3 -34159830 23641250#2"/>
    </vehicle>
    <vehicle id="92" depart="92.00">
        <route edges="23642053#2 84084648#3 84084648#4 84084648#5 84084648#6 84084648#7 28067234#0 23641748 28078045#1 28077972 27769230#1 214413840 28071747#0 28071747#1 196105859 196106259 196106012#0 196106012#1 -196106012#1"/>
    </vehicle>
    <vehicle id="94" depart="94.00">
        <route edges="23641255 25646322#0 25646322#1 25646322#2 25646322#3 23641250#0 23641251"/>
    </vehicle>
    <vehicle id="97" depart="97.00">
        <route edges="25646322#0 23641226#0 23641226#1 23641226#2 -34160400#2 23641255 -23641255"/>
    </vehicle>
    <vehicle id="99" depart="99.00">
        <route edges="-34160398 34160398"/>
    </vehicle>
</routes>
