<?xml version="1.0" encoding="UTF-8"?>

<!-- generated on 01/19/18 16:01:26 by SUMO netconvert Version 0.32.0
<?xml version="1.0" encoding="UTF-8"?>

<configuration xmlns:xsi="http://www.w3.org/2001/XMLSchema-instance" xsi:noNamespaceSchemaLocation="http://sumo.dlr.de/xsd/netconvertConfiguration.xsd">

    <input>
        <osm-files value="map.osm"/>
    </input>

    <output>
        <output-file value="map.net.xml"/>
    </output>

    <projection>
        <proj.utm value="true"/>
    </projection>

</configuration>
-->

<net version="0.27" xmlns:xsi="http://www.w3.org/2001/XMLSchema-instance" xsi:noNamespaceSchemaLocation="http://sumo.dlr.de/xsd/net_file.xsd">

    <location netOffset="-410138.33,-1435546.27" convBoundary="0.00,0.00,5810.45,10554.89" origBoundary="80.171412,12.984307,80.224890,13.079828" projParameter="+proj=utm +zone=44 +ellps=WGS84 +datum=WGS84 +units=m +no_defs"/>

    <type id="highway.bridleway" priority="1" numLanes="1" speed="2.78" allow="pedestrian" oneway="1" width="2.00"/>
    <type id="highway.bus_guideway" priority="1" numLanes="1" speed="8.33" allow="bus" oneway="1"/>
    <type id="highway.cycleway" priority="1" numLanes="1" speed="5.56" allow="bicycle" oneway="0" width="1.00"/>
    <type id="highway.footway" priority="1" numLanes="1" speed="2.78" allow="pedestrian" oneway="1" width="2.00"/>
    <type id="highway.ford" priority="1" numLanes="1" speed="2.78" allow="army" oneway="0"/>
    <type id="highway.living_street" priority="3" numLanes="1" speed="2.78" disallow="tram rail_urban rail rail_electric ship" oneway="0"/>
    <type id="highway.motorway" priority="13" numLanes="2" speed="44.44" allow="private emergency authority army vip passenger hov taxi bus coach delivery truck trailer motorcycle evehicle custom1 custom2" oneway="1"/>
    <type id="highway.motorway_link" priority="12" numLanes="1" speed="22.22" allow="private emergency authority army vip passenger hov taxi bus coach delivery truck trailer motorcycle evehicle custom1 custom2" oneway="1"/>
    <type id="highway.path" priority="1" numLanes="1" speed="2.78" allow="bicycle pedestrian" oneway="1" width="2.00"/>
    <type id="highway.pedestrian" priority="1" numLanes="1" speed="2.78" allow="pedestrian" oneway="1" width="2.00"/>
    <type id="highway.primary" priority="9" numLanes="2" speed="27.78" disallow="tram rail_urban rail rail_electric ship" oneway="0"/>
    <type id="highway.primary_link" priority="8" numLanes="1" speed="22.22" disallow="tram rail_urban rail rail_electric ship" oneway="0"/>
    <type id="highway.raceway" priority="14" numLanes="2" speed="83.33" allow="vip" oneway="0"/>
    <type id="highway.residential" priority="4" numLanes="1" speed="13.89" disallow="tram rail_urban rail rail_electric ship" oneway="0"/>
    <type id="highway.secondary" priority="7" numLanes="2" speed="27.78" disallow="tram rail_urban rail rail_electric ship" oneway="0"/>
    <type id="highway.secondary_link" priority="6" numLanes="1" speed="22.22" disallow="tram rail_urban rail rail_electric ship" oneway="0"/>
    <type id="highway.service" priority="2" numLanes="1" speed="5.56" allow="delivery bicycle pedestrian" oneway="0"/>
    <type id="highway.services" priority="1" numLanes="1" speed="8.33" disallow="tram rail_urban rail rail_electric ship" oneway="0"/>
    <type id="highway.stairs" priority="1" numLanes="1" speed="1.39" allow="pedestrian" oneway="1" width="2.00"/>
    <type id="highway.step" priority="1" numLanes="1" speed="1.39" allow="pedestrian" oneway="1" width="2.00"/>
    <type id="highway.steps" priority="1" numLanes="1" speed="1.39" allow="pedestrian" oneway="1" width="2.00"/>
    <type id="highway.tertiary" priority="6" numLanes="1" speed="22.22" disallow="tram rail_urban rail rail_electric ship" oneway="0"/>
    <type id="highway.tertiary_link" priority="5" numLanes="1" speed="22.22" disallow="tram rail_urban rail rail_electric ship" oneway="0"/>
    <type id="highway.track" priority="1" numLanes="1" speed="5.56" disallow="tram rail_urban rail rail_electric ship" oneway="0"/>
    <type id="highway.trunk" priority="11" numLanes="2" speed="27.78" disallow="tram rail_urban rail rail_electric bicycle pedestrian ship" oneway="0"/>
    <type id="highway.trunk_link" priority="10" numLanes="1" speed="22.22" disallow="tram rail_urban rail rail_electric bicycle pedestrian ship" oneway="0"/>
    <type id="highway.unclassified" priority="5" numLanes="1" speed="13.89" disallow="tram rail_urban rail rail_electric ship" oneway="0"/>
    <type id="highway.unsurfaced" priority="1" numLanes="1" speed="8.33" disallow="tram rail_urban rail rail_electric ship" oneway="0"/>
    <type id="railway.light_rail" priority="15" numLanes="1" speed="27.78" allow="rail_urban" oneway="1"/>
    <type id="railway.preserved" priority="15" numLanes="1" speed="27.78" allow="rail" oneway="1"/>
    <type id="railway.rail" priority="15" numLanes="1" speed="83.33" allow="rail rail_electric" oneway="1"/>
    <type id="railway.subway" priority="15" numLanes="1" speed="27.78" allow="rail_urban" oneway="1"/>
    <type id="railway.tram" priority="15" numLanes="1" speed="13.89" allow="tram" oneway="1"/>

    <edge id=":1121392629_0" function="internal">
        <lane id=":1121392629_0_0" index="0" disallow="tram rail_urban rail rail_electric ship" speed="18.06" length="4.98" shape="3502.57,2699.93 3501.37,2700.68 3500.51,2701.57 3499.96,2702.59 3499.75,2703.74"/>
    </edge>
    <edge id=":1121392629_1" function="internal">
        <lane id=":1121392629_1_0" index="0" disallow="tram rail_urban rail rail_electric ship" speed="13.89" length="4.82" shape="3502.57,2699.93 3501.09,2699.75 3500.35,2699.20 3500.35,2698.28 3501.08,2696.98"/>
    </edge>
    <edge id=":1121392629_2" function="internal">
        <lane id=":1121392629_2_0" index="0" disallow="tram rail_urban rail rail_electric ship" speed="18.06" length="4.64" shape="3496.82,2696.31 3497.79,2697.05 3498.83,2697.42 3499.92,2697.39 3501.08,2696.98"/>
    </edge>
    <edge id=":1121392629_3" function="internal">
        <lane id=":1121392629_3_0" index="0" disallow="tram rail_urban rail rail_electric ship" speed="22.22" length="8.22" shape="3496.82,2696.31 3498.17,2697.94 3499.11,2699.72 3499.63,2701.65 3499.75,2703.74"/>
    </edge>
    <edge id=":1121392674_0" function="internal">
        <lane id=":1121392674_0_0" index="0" disallow="tram rail_urban rail rail_electric bicycle pedestrian ship" speed="25.00" length="14.59" shape="3477.90,2421.68 3474.03,2419.62 3470.65,2419.25 3467.38,2419.62 3463.87,2419.82"/>
    </edge>
    <edge id=":1121392674_1" function="internal">
        <lane id=":1121392674_1_0" index="0" disallow="tram rail_urban rail rail_electric bicycle pedestrian ship" speed="27.78" length="15.47" shape="3477.90,2421.68 3465.30,2412.84"/>
        <lane id=":1121392674_1_1" index="1" disallow="tram rail_urban rail rail_electric bicycle pedestrian ship" speed="27.78" length="15.47" shape="3479.90,2419.05 3467.18,2410.12"/>
    </edge>
    <edge id=":1121392674_3" function="internal">
        <lane id=":1121392674_3_0" index="0" disallow="tram rail_urban rail rail_electric bicycle pedestrian ship" speed="25.00" length="8.11" shape="3464.05,2416.52 3466.80,2416.44 3467.93,2415.79 3467.43,2414.59 3465.30,2412.84"/>
    </edge>
    <edge id=":1121392674_4" function="internal">
        <lane id=":1121392674_4_0" index="0" disallow="tram rail_urban rail rail_electric bicycle pedestrian ship" speed="22.22" length="4.82" shape="3464.05,2416.52 3465.24,2417.41 3465.61,2418.26 3465.15,2419.06 3463.87,2419.82"/>
    </edge>
    <edge id=":1281030564_0" function="internal">
        <lane id=":1281030564_0_0" index="0" disallow="tram rail_urban rail rail_electric ship" speed="2.78" length="4.82" shape="3490.00,2106.49 3490.80,2105.24 3491.62,2104.81 3492.45,2105.21 3493.30,2106.43"/>
    </edge>
    <edge id=":2064737959_0" function="internal">
        <lane id=":2064737959_0_0" index="0" disallow="tram rail_urban rail rail_electric ship" speed="13.89" length="5.26" shape="3292.46,2476.93 3292.18,2475.44 3291.54,2474.41 3290.53,2473.82 3289.17,2473.68"/>
    </edge>
    <edge id=":2064737959_1" function="internal">
        <lane id=":2064737959_1_0" index="0" disallow="tram rail_urban rail rail_electric ship" speed="13.89" length="10.79" shape="3292.46,2476.93 3292.71,2473.94 3293.87,2471.84 3295.94,2470.62 3298.92,2470.29"/>
    </edge>
    <edge id=":2064737959_2" function="internal">
        <lane id=":2064737959_2_0" index="0" disallow="tram rail_urban rail rail_electric ship" speed="13.89" length="4.82" shape="3292.46,2476.93 3293.21,2475.64 3294.01,2475.18 3294.86,2475.54 3295.76,2476.73"/>
    </edge>
    <edge id=":2064737959_3" function="internal">
        <lane id=":2064737959_3_0" index="0" disallow="tram rail_urban rail rail_electric ship" speed="13.89" length="5.11" shape="3298.81,2473.59 3297.40,2473.74 3296.42,2474.32 3295.87,2475.32 3295.76,2476.73"/>
    </edge>
    <edge id=":2064737959_4" function="internal">
        <lane id=":2064737959_4_0" index="0" disallow="tram rail_urban rail rail_electric ship" speed="13.89" length="9.64" shape="3298.81,2473.59 3289.17,2473.68"/>
    </edge>
    <edge id=":2064737959_5" function="internal">
        <lane id=":2064737959_5_0" index="0" disallow="tram rail_urban rail rail_electric ship" speed="13.89" length="2.41" shape="3298.81,2473.59 3297.60,2472.72 3297.22,2471.88"/>
    </edge>
    <edge id=":2064737959_9" function="internal">
        <lane id=":2064737959_9_0" index="0" speed="13.89" length="2.41" shape="3297.22,2471.88 3297.66,2471.07 3298.92,2470.29"/>
    </edge>
    <edge id=":2064737959_6" function="internal">
        <lane id=":2064737959_6_0" index="0" disallow="tram rail_urban rail rail_electric ship" speed="13.89" length="9.92" shape="3289.00,2470.38 3298.92,2470.29"/>
    </edge>
    <edge id=":2064737959_7" function="internal">
        <lane id=":2064737959_7_0" index="0" disallow="tram rail_urban rail rail_electric ship" speed="13.89" length="5.46" shape="3289.00,2470.38 3291.80,2470.65 3293.87,2471.80 3294.02,2472.03"/>
    </edge>
    <edge id=":2064737959_8" function="internal">
        <lane id=":2064737959_8_0" index="0" disallow="tram rail_urban rail rail_electric ship" speed="13.89" length="2.54" shape="3289.00,2470.38 3290.28,2471.14 3290.73,2471.94 3290.68,2472.06"/>
    </edge>
    <edge id=":2064737959_10" function="internal">
        <lane id=":2064737959_10_0" index="0" speed="13.89" length="5.10" shape="3294.02,2472.03 3295.18,2473.82 3295.76,2476.73"/>
    </edge>
    <edge id=":2064737959_11" function="internal">
        <lane id=":2064737959_11_0" index="0" speed="13.89" length="2.28" shape="3290.68,2472.06 3290.36,2472.79 3289.17,2473.68"/>
    </edge>
    <edge id=":2064737971_0" function="internal">
        <lane id=":2064737971_0_0" index="0" disallow="tram rail_urban rail rail_electric ship" speed="27.78" length="8.93" shape="3302.40,2541.12 3299.84,2541.14 3298.09,2541.22 3296.35,2541.45 3293.83,2541.92"/>
        <lane id=":2064737971_0_1" index="1" disallow="tram rail_urban rail rail_electric ship" speed="27.78" length="8.93" shape="3302.38,2537.82 3299.65,2537.84 3297.77,2537.93 3295.91,2538.18 3293.22,2538.67"/>
    </edge>
    <edge id=":2064737971_2" function="internal">
        <lane id=":2064737971_2_0" index="0" disallow="tram rail_urban rail rail_electric ship" speed="20.84" length="7.77" shape="3302.38,2537.82 3299.60,2537.65 3297.59,2537.10 3296.37,2536.18 3295.93,2534.89"/>
    </edge>
    <edge id=":2064737971_3" function="internal">
        <lane id=":2064737971_3_0" index="0" disallow="tram rail_urban rail rail_electric ship" speed="20.84" length="7.69" shape="3299.23,2534.78 3298.88,2536.05 3297.77,2537.12 3295.88,2537.99 3293.22,2538.67"/>
    </edge>
    <edge id=":2064737971_4" function="internal">
        <lane id=":2064737971_4_0" index="0" disallow="tram rail_urban rail rail_electric ship" speed="13.89" length="4.82" shape="3299.23,2534.78 3298.44,2536.04 3297.63,2536.48 3296.79,2536.09 3295.93,2534.89"/>
    </edge>
    <edge id=":2066072120_0" function="internal">
        <lane id=":2066072120_0_0" index="0" disallow="tram rail_urban rail rail_electric ship" speed="13.89" length="4.82" shape="3062.00,2415.31 3062.80,2414.06 3063.62,2413.63 3064.45,2414.02 3065.30,2415.24"/>
    </edge>
    <edge id=":2066072121_0" function="internal">
        <lane id=":2066072121_0_0" index="0" disallow="tram rail_urban rail rail_electric ship" speed="13.89" length="4.82" shape="3341.56,2471.65 3342.77,2472.51 3343.16,2473.35 3342.72,2474.16 3341.46,2474.95"/>
    </edge>
    <edge id=":2066072122_0" function="internal">
        <lane id=":2066072122_0_0" index="0" disallow="tram rail_urban rail rail_electric ship" speed="13.89" length="9.89" shape="3184.62,2482.87 3174.77,2483.74"/>
    </edge>
    <edge id=":2066072122_1" function="internal">
        <lane id=":2066072122_1_0" index="0" disallow="tram rail_urban rail rail_electric ship" speed="13.89" length="5.59" shape="3184.62,2482.87 3181.63,2482.82 3179.46,2481.81 3179.34,2481.63"/>
    </edge>
    <edge id=":2066072122_2" function="internal">
        <lane id=":2066072122_2_0" index="0" disallow="tram rail_urban rail rail_electric ship" speed="13.89" length="2.53" shape="3184.62,2482.87 3183.29,2482.21 3182.77,2481.44 3182.81,2481.32"/>
    </edge>
    <edge id=":2066072122_9" function="internal">
        <lane id=":2066072122_9_0" index="0" speed="13.89" length="5.18" shape="3179.34,2481.63 3178.10,2479.83 3177.55,2476.89"/>
    </edge>
    <edge id=":2066072122_10" function="internal">
        <lane id=":2066072122_10_0" index="0" speed="13.89" length="2.29" shape="3182.81,2481.32 3183.08,2480.57 3184.20,2479.59"/>
    </edge>
    <edge id=":2066072122_3" function="internal">
        <lane id=":2066072122_3_0" index="0" disallow="tram rail_urban rail rail_electric ship" speed="13.89" length="5.11" shape="3180.85,2476.76 3181.11,2478.15 3181.75,2479.09 3182.78,2479.57 3184.20,2479.59"/>
    </edge>
    <edge id=":2066072122_4" function="internal">
        <lane id=":2066072122_4_0" index="0" disallow="tram rail_urban rail rail_electric ship" speed="13.89" length="10.54" shape="3180.85,2476.76 3180.57,2479.70 3179.46,2481.84 3177.53,2483.19 3174.77,2483.74"/>
    </edge>
    <edge id=":2066072122_5" function="internal">
        <lane id=":2066072122_5_0" index="0" disallow="tram rail_urban rail rail_electric ship" speed="13.89" length="4.82" shape="3180.85,2476.76 3180.08,2478.03 3179.27,2478.48 3178.43,2478.10 3177.55,2476.89"/>
    </edge>
    <edge id=":2066072122_6" function="internal">
        <lane id=":2066072122_6_0" index="0" disallow="tram rail_urban rail rail_electric ship" speed="13.89" length="5.25" shape="3174.61,2480.45 3175.95,2480.17 3176.89,2479.48 3177.42,2478.39 3177.55,2476.89"/>
    </edge>
    <edge id=":2066072122_7" function="internal">
        <lane id=":2066072122_7_0" index="0" disallow="tram rail_urban rail rail_electric ship" speed="13.89" length="9.63" shape="3174.61,2480.45 3184.20,2479.59"/>
    </edge>
    <edge id=":2066072122_8" function="internal">
        <lane id=":2066072122_8_0" index="0" disallow="tram rail_urban rail rail_electric ship" speed="13.89" length="2.41" shape="3174.61,2480.45 3175.88,2481.21 3176.34,2482.02"/>
    </edge>
    <edge id=":2066072122_11" function="internal">
        <lane id=":2066072122_11_0" index="0" speed="13.89" length="2.41" shape="3176.34,2482.02 3175.96,2482.86 3174.77,2483.74"/>
    </edge>
    <edge id=":2142288345_0" function="internal">
        <lane id=":2142288345_0_0" index="0" disallow="tram rail_urban rail rail_electric ship" speed="25.00" length="3.54" shape="4142.53,2396.11 4142.48,2395.13 4142.85,2394.43 4143.21,2393.73 4143.16,2392.75"/>
    </edge>
    <edge id=":2142288345_1" function="internal">
        <lane id=":2142288345_1_0" index="0" disallow="tram rail_urban rail rail_electric ship" speed="27.78" length="3.00" shape="4142.53,2396.11 4141.48,2393.31"/>
        <lane id=":2142288345_1_1" index="1" disallow="tram rail_urban rail rail_electric ship" speed="27.78" length="3.00" shape="4145.67,2395.09 4144.62,2392.26"/>
    </edge>
    <edge id=":2142288346_0" function="internal">
        <lane id=":2142288346_0_0" index="0" disallow="tram rail_urban rail rail_electric ship" speed="27.78" length="2.95" shape="4140.11,2395.25 4140.98,2398.01"/>
        <lane id=":2142288346_0_1" index="1" disallow="tram rail_urban rail rail_electric ship" speed="27.78" length="2.95" shape="4136.95,2396.19 4137.84,2399.05"/>
    </edge>
    <edge id=":2142288346_2" function="internal">
        <lane id=":2142288346_2_0" index="0" disallow="tram rail_urban rail rail_electric ship" speed="25.00" length="3.08" shape="4138.32,2396.17 4138.51,2396.94 4138.21,2397.55 4137.84,2398.18 4137.84,2399.05"/>
    </edge>
    <edge id=":2142288353_0" function="internal">
        <lane id=":2142288353_0_0" index="0" disallow="tram rail_urban rail rail_electric bicycle pedestrian ship" speed="27.78" length="26.12" shape="4168.71,2632.87 4162.51,2629.93 4157.04,2627.22 4151.48,2624.75 4145.01,2622.53"/>
        <lane id=":2142288353_0_1" index="1" disallow="tram rail_urban rail rail_electric bicycle pedestrian ship" speed="27.78" length="26.12" shape="4170.06,2629.86 4163.79,2626.89 4158.17,2624.13 4152.47,2621.60 4145.93,2619.36"/>
    </edge>
    <edge id=":2142288353_2" function="internal">
        <lane id=":2142288353_2_0" index="0" disallow="tram rail_urban rail rail_electric bicycle pedestrian ship" speed="27.78" length="26.12" shape="4171.05,2626.41 4164.15,2625.61 4157.91,2625.00 4151.73,2624.12 4145.01,2622.53"/>
        <lane id=":2142288353_2_1" index="1" disallow="tram rail_urban rail rail_electric bicycle pedestrian ship" speed="27.78" length="26.12" shape="4171.50,2623.14 4164.68,2622.36 4158.60,2621.78 4152.58,2620.93 4145.93,2619.36"/>
    </edge>
    <edge id=":2142471892_0" function="internal">
        <lane id=":2142471892_0_0" index="0" disallow="tram rail_urban rail rail_electric ship" speed="22.22" length="9.57" shape="4126.30,2365.90 4129.70,2374.84"/>
    </edge>
    <edge id=":2142471892_1" function="internal">
        <lane id=":2142471892_1_0" index="0" disallow="tram rail_urban rail rail_electric ship" speed="12.50" length="7.95" shape="4126.30,2365.90 4127.17,2368.59 4127.35,2370.67 4126.84,2372.14 4125.65,2373.00"/>
    </edge>
    <edge id=":2142471892_2" function="internal">
        <lane id=":2142471892_2_0" index="0" disallow="tram rail_urban rail rail_electric ship" speed="12.50" length="7.93" shape="4124.52,2369.90 4125.98,2369.80 4127.33,2370.59 4128.57,2372.27 4129.70,2374.84"/>
    </edge>
    <edge id=":2142471892_3" function="internal">
        <lane id=":2142471892_3_0" index="0" disallow="tram rail_urban rail rail_electric ship" speed="2.78" length="4.82" shape="4124.52,2369.90 4125.96,2370.26 4126.63,2370.89 4126.53,2371.81 4125.65,2373.00"/>
    </edge>
    <edge id=":2142471894_0" function="internal">
        <lane id=":2142471894_0_0" index="0" disallow="tram rail_urban rail rail_electric ship" speed="22.22" length="9.77" shape="4134.08,2387.19 4135.04,2389.93 4135.76,2391.79 4136.67,2393.55 4138.21,2396.00"/>
    </edge>
    <edge id=":2142471894_1" function="internal">
        <lane id=":2142471894_1_0" index="0" disallow="tram rail_urban rail rail_electric ship" speed="18.06" length="9.33" shape="4134.08,2387.19 4134.86,2390.30 4134.63,2392.46 4133.40,2393.65 4131.16,2393.90"/>
    </edge>
    <edge id=":2142471894_2" function="internal">
        <lane id=":2142471894_2_0" index="0" disallow="tram rail_urban rail rail_electric ship" speed="18.06" length="8.92" shape="4131.45,2390.61 4133.16,2391.06 4134.85,2392.10 4136.54,2393.75 4138.21,2396.00"/>
    </edge>
    <edge id=":2142471894_3" function="internal">
        <lane id=":2142471894_3_0" index="0" disallow="tram rail_urban rail rail_electric ship" speed="13.89" length="4.82" shape="4131.45,2390.61 4132.61,2391.54 4132.95,2392.39 4132.47,2393.18 4131.16,2393.90"/>
    </edge>
    <edge id=":2168356864_0" function="internal">
        <lane id=":2168356864_0_0" index="0" disallow="tram rail_urban rail rail_electric ship" speed="13.89" length="15.34" shape="3589.55,2531.72 3585.89,2532.25 3582.37,2533.77 3578.95,2535.75 3575.58,2537.63"/>
    </edge>
    <edge id=":2168356864_1" function="internal">
        <lane id=":2168356864_1_0" index="0" disallow="tram rail_urban rail rail_electric ship" speed="13.89" length="16.24" shape="3589.55,2531.72 3573.33,2530.90"/>
    </edge>
    <edge id=":2168356864_2" function="internal">
        <lane id=":2168356864_2_0" index="0" disallow="tram rail_urban rail rail_electric ship" speed="13.89" length="2.41" shape="3589.55,2531.72 3588.35,2530.85 3587.97,2530.01"/>
    </edge>
    <edge id=":2168356864_9" function="internal">
        <lane id=":2168356864_9_0" index="0" speed="13.89" length="2.41" shape="3587.97,2530.01 3588.42,2529.20 3589.69,2528.43"/>
    </edge>
    <edge id=":2168356864_3" function="internal">
        <lane id=":2168356864_3_0" index="0" disallow="tram rail_urban rail rail_electric ship" speed="13.89" length="16.20" shape="3573.51,2527.61 3589.69,2528.43"/>
    </edge>
    <edge id=":2168356864_4" function="internal">
        <lane id=":2168356864_4_0" index="0" disallow="tram rail_urban rail rail_electric ship" speed="13.89" length="9.78" shape="3573.51,2527.61 3581.19,2528.63 3582.86,2529.78"/>
    </edge>
    <edge id=":2168356864_5" function="internal">
        <lane id=":2168356864_5_0" index="0" disallow="tram rail_urban rail rail_electric ship" speed="13.89" length="2.41" shape="3573.51,2527.61 3574.70,2528.50 3575.07,2529.34"/>
    </edge>
    <edge id=":2168356864_10" function="internal">
        <lane id=":2168356864_10_0" index="0" speed="13.89" length="12.80" shape="3582.86,2529.78 3584.10,2530.64 3582.23,2533.64 3575.58,2537.63"/>
    </edge>
    <edge id=":2168356864_11" function="internal">
        <lane id=":2168356864_11_0" index="0" speed="13.89" length="2.41" shape="3575.07,2529.34 3574.61,2530.14 3573.33,2530.90"/>
    </edge>
    <edge id=":2168356864_6" function="internal">
        <lane id=":2168356864_6_0" index="0" disallow="tram rail_urban rail rail_electric ship" speed="13.89" length="8.50" shape="3574.12,2534.68 3576.62,2533.18 3577.32,2532.05 3576.23,2531.29 3573.33,2530.90"/>
    </edge>
    <edge id=":2168356864_7" function="internal">
        <lane id=":2168356864_7_0" index="0" disallow="tram rail_urban rail rail_electric ship" speed="13.89" length="16.93" shape="3574.12,2534.68 3577.74,2532.74 3581.71,2530.64 3585.77,2529.01 3589.69,2528.43"/>
    </edge>
    <edge id=":2168356864_8" function="internal">
        <lane id=":2168356864_8_0" index="0" disallow="tram rail_urban rail rail_electric ship" speed="13.89" length="4.82" shape="3574.12,2534.68 3575.59,2534.87 3576.33,2535.42 3576.32,2536.35 3575.58,2537.63"/>
    </edge>
    <edge id=":2241055803_0" function="internal">
        <lane id=":2241055803_0_0" index="0" disallow="tram rail_urban rail rail_electric ship" speed="2.78" length="4.82" shape="4157.71,2320.13 4157.46,2321.59 4156.87,2322.31 4155.95,2322.26 4154.69,2321.47"/>
    </edge>
    <edge id=":2241058261_0" function="internal">
        <lane id=":2241058261_0_0" index="0" disallow="tram rail_urban rail rail_electric ship" speed="13.89" length="5.01" shape="4045.73,2757.67 4044.36,2757.76 4043.35,2758.27 4042.70,2759.19 4042.41,2760.53"/>
    </edge>
    <edge id=":2241058261_1" function="internal">
        <lane id=":2241058261_1_0" index="0" disallow="tram rail_urban rail rail_electric ship" speed="13.89" length="10.27" shape="4045.73,2757.67 4042.97,2757.06 4041.04,2755.74 4039.95,2753.69 4039.69,2750.92"/>
    </edge>
    <edge id=":2241058261_2" function="internal">
        <lane id=":2241058261_2_0" index="0" disallow="tram rail_urban rail rail_electric ship" speed="13.89" length="4.82" shape="4045.73,2757.67 4044.56,2756.75 4044.21,2755.90 4044.69,2755.11 4045.98,2754.38"/>
    </edge>
    <edge id=":2241058261_3" function="internal">
        <lane id=":2241058261_3_0" index="0" disallow="tram rail_urban rail rail_electric ship" speed="13.89" length="5.06" shape="4042.98,2751.08 4043.11,2752.43 4043.66,2753.43 4044.61,2754.08 4045.98,2754.38"/>
    </edge>
    <edge id=":2241058261_4" function="internal">
        <lane id=":2241058261_4_0" index="0" disallow="tram rail_urban rail rail_electric ship" speed="13.89" length="9.47" shape="4042.98,2751.08 4042.41,2760.53"/>
    </edge>
    <edge id=":2241058261_5" function="internal">
        <lane id=":2241058261_5_0" index="0" disallow="tram rail_urban rail rail_electric ship" speed="13.89" length="2.41" shape="4042.98,2751.08 4042.10,2752.28 4041.25,2752.65"/>
    </edge>
    <edge id=":2241058261_9" function="internal">
        <lane id=":2241058261_9_0" index="0" speed="13.89" length="2.41" shape="4041.25,2752.65 4040.45,2752.19 4039.69,2750.92"/>
    </edge>
    <edge id=":2241058261_6" function="internal">
        <lane id=":2241058261_6_0" index="0" disallow="tram rail_urban rail rail_electric ship" speed="13.89" length="9.40" shape="4039.12,2760.30 4039.69,2750.92"/>
    </edge>
    <edge id=":2241058261_7" function="internal">
        <lane id=":2241058261_7_0" index="0" disallow="tram rail_urban rail rail_electric ship" speed="13.89" length="5.18" shape="4039.12,2760.30 4039.72,2757.52 4041.06,2755.61"/>
    </edge>
    <edge id=":2241058261_8" function="internal">
        <lane id=":2241058261_8_0" index="0" disallow="tram rail_urban rail rail_electric ship" speed="13.89" length="2.41" shape="4039.12,2760.30 4040.03,2759.12 4040.88,2758.77"/>
    </edge>
    <edge id=":2241058261_10" function="internal">
        <lane id=":2241058261_10_0" index="0" speed="13.89" length="5.18" shape="4041.06,2755.61 4043.15,2754.56 4045.98,2754.38"/>
    </edge>
    <edge id=":2241058261_11" function="internal">
        <lane id=":2241058261_11_0" index="0" speed="13.89" length="2.41" shape="4040.88,2758.77 4041.67,2759.24 4042.41,2760.53"/>
    </edge>
    <edge id=":2241058327_0" function="internal">
        <lane id=":2241058327_0_0" index="0" disallow="tram rail_urban rail rail_electric ship" speed="13.89" length="5.05" shape="3945.49,2835.74 3944.12,2835.83 3943.11,2836.33 3942.44,2837.27 3942.14,2838.63"/>
    </edge>
    <edge id=":2241058327_1" function="internal">
        <lane id=":2241058327_1_0" index="0" disallow="tram rail_urban rail rail_electric ship" speed="13.89" length="9.54" shape="3945.49,2835.74 3935.98,2835.04"/>
    </edge>
    <edge id=":2241058327_2" function="internal">
        <lane id=":2241058327_2_0" index="0" disallow="tram rail_urban rail rail_electric ship" speed="13.89" length="2.41" shape="3945.49,2835.74 3944.33,2834.82 3943.99,2833.96"/>
    </edge>
    <edge id=":2241058327_9" function="internal">
        <lane id=":2241058327_9_0" index="0" speed="13.89" length="2.41" shape="3943.99,2833.96 3944.47,2833.17 3945.77,2832.46"/>
    </edge>
    <edge id=":2241058327_3" function="internal">
        <lane id=":2241058327_3_0" index="0" disallow="tram rail_urban rail rail_electric ship" speed="13.89" length="9.61" shape="3936.19,2831.75 3945.77,2832.46"/>
    </edge>
    <edge id=":2241058327_4" function="internal">
        <lane id=":2241058327_4_0" index="0" disallow="tram rail_urban rail rail_electric ship" speed="13.89" length="5.36" shape="3936.19,2831.75 3938.99,2832.33 3940.92,2833.67 3940.98,2833.81"/>
    </edge>
    <edge id=":2241058327_5" function="internal">
        <lane id=":2241058327_5_0" index="0" disallow="tram rail_urban rail rail_electric ship" speed="13.89" length="2.41" shape="3936.19,2831.75 3937.37,2832.65 3937.73,2833.50"/>
    </edge>
    <edge id=":2241058327_10" function="internal">
        <lane id=":2241058327_10_0" index="0" speed="13.89" length="5.06" shape="3940.98,2833.81 3941.97,2835.77 3942.14,2838.63"/>
    </edge>
    <edge id=":2241058327_11" function="internal">
        <lane id=":2241058327_11_0" index="0" speed="13.89" length="2.41" shape="3937.73,2833.50 3937.27,2834.30 3935.98,2835.04"/>
    </edge>
    <edge id=":2241058327_6" function="internal">
        <lane id=":2241058327_6_0" index="0" disallow="tram rail_urban rail rail_electric ship" speed="13.89" length="5.02" shape="3938.85,2838.36 3938.77,2836.98 3938.26,2835.97 3937.33,2835.32 3935.98,2835.04"/>
    </edge>
    <edge id=":2241058327_7" function="internal">
        <lane id=":2241058327_7_0" index="0" disallow="tram rail_urban rail rail_electric ship" speed="13.89" length="10.38" shape="3938.85,2838.36 3939.48,2835.57 3940.85,2833.66 3942.94,2832.62 3945.77,2832.46"/>
    </edge>
    <edge id=":2241058327_8" function="internal">
        <lane id=":2241058327_8_0" index="0" disallow="tram rail_urban rail rail_electric ship" speed="13.89" length="4.82" shape="3938.85,2838.36 3939.77,2837.19 3940.63,2836.85 3941.42,2837.33 3942.14,2838.63"/>
    </edge>
    <edge id=":2241058347_0" function="internal">
        <lane id=":2241058347_0_0" index="0" disallow="tram rail_urban rail rail_electric ship" speed="13.89" length="9.56" shape="4187.25,2852.18 4177.71,2851.49"/>
    </edge>
    <edge id=":2241058347_1" function="internal">
        <lane id=":2241058347_1_0" index="0" disallow="tram rail_urban rail rail_electric ship" speed="13.89" length="4.95" shape="4187.25,2852.18 4184.69,2851.58 4182.81,2850.20"/>
    </edge>
    <edge id=":2241058347_2" function="internal">