<?xml version="1.0" encoding="UTF-8"?>

<!-- generated on 01/20/18 12:16:08 by SUMO duarouter Version 0.32.0
<?xml version="1.0" encoding="UTF-8"?>

<configuration xmlns:xsi="http://www.w3.org/2001/XMLSchema-instance" xsi:noNamespaceSchemaLocation="http://sumo.dlr.de/xsd/duarouterConfiguration.xsd">

    <input>
        <net-file value="map.net.xml"/>
        <route-files value="trips.trips.xml"/>
    </input>

    <output>
        <output-file value="map.rou.xml"/>
        <alternatives-output value="map.rou.alt.xml"/>
    </output>

    <processing>
        <ignore-errors value="true"/>
    </processing>

    <time>
        <begin value="0"/>
        <end value="100.0"/>
    </time>

    <report>
        <no-warnings value="true"/>
        <no-step-log value="true"/>
    </report>

</configuration>
-->

<routes xmlns:xsi="http://www.w3.org/2001/XMLSchema-instance" xsi:noNamespaceSchemaLocation="http://sumo.dlr.de/xsd/routes_file.xsd">
    <vehicle id="0" depart="0.00">
        <route edges="44169608 -44169608 23647374#6 23647374#7 23647374#8 23647374#9 23250129#0 23250129#1"/>
    </vehicle>
    <vehicle id="1" depart="1.00">
        <route edges="-23250129#1 -23250129#0 -23647374#9 -23647374#8 23647374#8"/>
    </vehicle>
    <vehicle id="2" depart="2.00">
        <route edges="208936219#3 -208936219#3 208936202 46763969#0 -208936180#7 -208936180#6 -208936180#5 -208936180#4 -208936180#3 -208936180#2 -208936180#1 208936212"/>
    </vehicle>
    <vehicle id="4" depart="4.00">
        <route edges="-46763992#1 -208926231#1 -208926231#0 -23647374#10 -23647374#9 -23647374#8 -23647374#7 -23647374#6 -23647374#5 -23647374#4 -23647374#3 -23647374#2 -23647374#1 -23647374#0 72850488#0 72850488#1 72850488#2 -23092117#1 -23092117#0 23060976#1 23092112 30118948#0 30118948#1 95641243#1 95641243#2 95641243#3 95641243#4 95641243#5 95641243#6 95641243#7 95641243#8 -30751724#3 -30751724#2 172951041#0 -172951041#0"/>
    </vehicle>
    <vehicle id="5" depart="5.00">
        <route edges="-548104337 -548104335#0 208832389#0 208832389#1 95641243#8 95641243#9 95641243#10 30118847#1 30118847#2 30118878 72850486 158079113#0 158079113#1 158079113#2 158079114 30750557 30750559#0 30750559#1 46763034 370050695#0 385269685 385269609"/>
    </vehicle>
    <vehicle id="6" depart="6.00">
        <route edges="23092141 -23092124#1 -23092124#0 -72850488#2 -72850488#1 -72850488#0 23647374#0 23647374#1 23647374#2 23647374#3 23647374#4 23647374#5 23647374#6 23647374#7 23647374#8 23647374#9 23647374#10 23647374#11 23647374#12 208936208#0 208936208#1 46763988#2 46763988#3 46763988#4 -46763969#4 -46763969#3 -46763969#2 -46763969#1 -46763969#0 -208936214#3 -208936214#2 -208936214#1"/>
    </vehicle>
    <vehicle id="8" depart="8.00">
        <route edges="95641250#0 95641250#1 95641250#2 95641250#3 23092110#0 23092110#1 30119047 23060976#0 23092117#0 23092117#1 -72850488#2 -72850488#1 -72850488#0 23647374#0 23647374#1 23647374#2 23647374#3 23647374#4 23647374#5 23647374#6 23647374#7 23647374#8 23647374#9 23250129#0 23250129#1 23250129#2 30749078#0 30749078#1 30749078#2 30749078#3 30749077#0 30749077#1 30749077#2 120512768#0"/>
    </vehicle>
    <vehicle id="9" depart="9.00">
        <route edges="95641250#1"/>
    </vehicle>
    <vehicle id="10" depart="10.00">
        <route edges="46503478 -120512768#0 -30749077#2 -30749077#1 -30749077#0 -30749078#3 208936181 -208936196#1 208936214#0 214068913"/>
    </vehicle>
    <vehicle id="11" depart="11.00">
        <route edges="46763032#0 46763032#1 46763032#2 -46763033 -23647374#14 -23647374#13 -23647374#12 -23647374#11 -23647374#10 -23647374#9 -23647374#8 -23647374#7 -23647374#6 -23647374#5 -23647374#4 -23647374#3 -23647374#2 -23647374#1 -23647374#0 72850488#0 72850488#1 72850488#2 -23092117#1 -23092117#0 23060976#1 23092109#3 23092109#0 23092115 30119044 95641232#1 95641232#2 95641232#3 95641232#4"/>
    </vehicle>
    <vehicle id="12" depart="12.00">
        <route edges="208936200 208936180#3 -208936196#1"/>
    </vehicle>
    <vehicle id="13" depart="13.00">
        <route edges="30751002#4 30751002#5 30751002#6 30751002#7 30751002#8 30751002#9 23092113 30118949 23092109#0 23092109#1 23060976#0 23092117#0 23092117#1 23092124#0 23092124#1 23092124#2 23092124#3 23092124#4 23092124#5 23092124#6 23092124#7 23092124#8 23092124#9 158079114 30750557 30750559#0 -46763991#1 229845760#0 -229845727#2 -229845727#1 -229846058"/>
    </vehicle>
    <vehicle id="14" depart="14.00">
        <route edges="-208832416 -23092124#4 -23092124#3 -23092124#2 -23092124#1 -23092124#0 -72850488#2 -72850488#1 -72850488#0 23647374#0 23647374#1 23647374#2 23647374#3 23647374#4 23647374#5 23647374#6 23647374#7 23647374#8 23647374#9 23250129#0 23250129#1 23250129#2 30749078#0 30749078#1 30749078#2 30749078#3 30749077#0 30749077#1 30749077#2 133593212#0 133593212#1 46503476#0 46503476#1 46503476#2 46503476#3 -133593212#4"/>
    </vehicle>
    <vehicle id="15" depart="15.00">
        <route edges="-548104337 -548104335#0 208832389#0 208832389#1 95641243#8 95641243#9 95641243#10 30118847#1 30118847#2 30118878 72850486 158079113#0 158079113#1 158079113#2 -23092124#9 -23092124#8 -23092124#7 -23092124#6 -23092124#5 -23092124#4 -23092124#3 -23092124#2 -23092124#1 -23092124#0 -72850488#2 -72850488#1 -72850488#0 23647374#0 23647374#1 23647374#2 23647374#3 23647374#4 23647374#5 23647374#6 44074949"/>
    </vehicle>
    <vehicle id="18" depart="18.00">
        <route edges="158079112#1 158079111#0 158079111#1 158079111#2 158079113#0 158079113#1 158079113#2 -23092124#9 -23092124#8 -23092124#7 -23092124#6 -23092124#5 -23092124#4 -23092124#3 -23092124#2 -23092124#1 -23092124#0 -23092117#1 -23092117#0 23060976#1 23092109#3 23092109#0 23092115"/>
    </vehicle>
    <vehicle id="22" depart="22.00">
        <route edges="46763988#1 -208936208#1 -208936208#0 23647374#13 23647374#14 23647374#15 -23299906#8 426696018#0 -426696017#0 426696017#0"/>
    </vehicle>
    <vehicle id="24" depart="24.00">
        <route edges="158079111#1 158079111#2 158079113#0 158079113#1 158079113#2 -23092124#9 -23092124#8 -23092124#7 -23092124#6 -23092124#5 -23092124#4 -23092124#3 -23092124#2 -23092124#1 -23092124#0 -23092117#1 -23092117#0 23060976#1 23092112 30118948#0 44166587#0"/>
    </vehicle>
    <vehicle id="25" depart="25.00">
        <route edges="30751002#1 30751002#2 30118847#0 30118847#1 30118847#2 30118878 72850486 158079113#0 158079113#1 158079113#2 -23092124#9 -23092124#8 -23092124#7 -23092124#6 -23092124#5 -23092124#4 -23092124#3 -23092124#2 -23092124#1 -23092124#0 -72850488#2 -72850488#1 -72850488#0 23647374#0 23647374#1 23647374#2 23647374#3 23647374#4 23647374#5 23647374#6 23647374#7 23647374#8 23647374#9 23647374#10 23647374#11 23647374#12 208936208#0 208936208#1 46763988#2 46763988#3 46763988#4 -46763969#4 -46763969#3 -46763969#2 -46763969#1 -46763969#0 208936222#0 208936203 208936223#1 -46763972#2"/>
    </vehicle>
    <vehicle id="26" depart="26.00">
        <route edges="30751002#0 30751002#1 30751002#2 30118847#0 30118847#1 30118847#2 30118878 72850486 158079113#0 158079113#1 158079113#2 -23092124#9 -23092124#8 -23092124#7 -23092124#6 -23092124#5 -23092124#4 -23092124#3 -23092124#2 -23092124#1 -23092124#0 -72850488#2 -72850488#1 -72850488#0 23647374#0 23647374#1 23647374#2 23647374#3 23647374#4 23647374#5 23647374#6 23647374#7 23647374#8 23647374#9 23647374#10 23647374#11 23647374#12 208936208#0 208936208#1 46763988#2 46763988#3 46763988#4 -46763969#4 -46763969#3 -46763969#2 -46763969#1 -46763969#0 -208936214#3 -208936214#2 -208936214#1 214068913"/>
    </vehicle>
    <vehicle id="27" depart="27.00">
        <route edges="158079111#0 158079111#1 158079111#2 158079113#0 158079113#1 158079113#2 158079114 30750557 30750559#0 30750559#1 30750559#2 30750559#3 -46763023#3 -46763023#2"/>
    </vehicle>
    <vehicle id="28" depart="28.00">
        <route edges="-46763971#0 46763971#0 46763971#1 -23250129#2 -23250129#1 -23250129#0 -23647374#9 -23647374#8 -23647374#7 -23647374#6 -23647374#5 -23647374#4 -23647374#3 -23647374#2 -23647374#1 -23647374#0 72850488#0 72850488#1 72850488#2 23092124#0 23092124#1 23092124#2 23092124#3 23092124#4 23092124#5 23092124#6 23092124#7 23092124#8 23092124#9 -158079113#2 -158079113#1 -158079113#0 -72850486 -30118878 -30118847#2 -30118847#1 -30118847#0 30751002#3 30751002#4 30751002#5 30751002#6 30751002#7 30751002#8 30751002#9 30751002#10 95641232#0"/>
    </vehicle>
    <vehicle id="29" depart="29.00">
        <route edges="46763991#1 -46763991#1 -46763991#0 -46763020#2 -46763020#1 -46763020#0 385269541 -426696018#1 -426696018#0 23299906#8 -23647374#15 -23647374#14 -23647374#13 208936208#0 208936208#1 46763988#2 -46763989#1 541337226#0 541337226#1"/>
    </vehicle>
    <vehicle id="30" depart="30.00">
        <route edges="-23299927#0 -30749078#1 -30749078#0 -23250129#2 -23250129#1 -23250129#0 -23647374#9 -23647374#8 -23647374#7 -23647374#6 -23647374#5 -23647374#4 -23647374#3 -23647374#2 -23647374#1 -23647374#0 72850488#0 72850488#1 72850488#2 23092124#0 23092124#1 23092124#2 23092124#3 23092124#4 23092124#5 23092124#6 23092124#7 23092124#8 23092124#9 -158079113#2 -158079113#1 -158079113#0 -72850486 -30118878"/>
    </vehicle>
    <vehicle id="31" depart="31.00">
        <route edges="-23240554#0 23647374#0 23647374#1 23647374#2 23647374#3 23647374#4 23647374#5 23647374#6 23647374#7 23647374#8 23647374#9 23647374#10 23647374#11 23647374#12 23647374#13 23647374#14 23647374#15 -23299906#8 426696018#0 426696018#1 -385269541 46763020#0 46763020#1 46763020#2 -370050695#5 -370050695#4 -370050695#3 -370050695#2 -370050695#1 385269685 385269609 -46763023#0 -385269719"/>
    </vehicle>
    <vehicle id="33" depart="33.00">
        <route edges="46821260#0 46821257#0 46821257#1 46821257#2"/>
    </vehicle>
    <vehicle id="34" depart="34.00">
        <route edges="158079111#1 158079111#2 158079113#0 158079113#1 158079113#2 -23092124#9 -23092124#8 -23092124#7 -23092124#6 208832394 -208832416"/>
    </vehicle>
    <vehicle id="35" depart="35.00">
        <route edges="-46503475 -133593212#2 -133593212#1 -133593212#0 -30749077#2 -30749077#1 -30749077#0 -30749078#3 -30749078#2 -30749078#1 -30749078#0 -23250129#2 -23250129#1 -23250129#0 -23647374#9 -23647374#8 -23647374#7 -23647374#6 -23647374#5 -23647374#4 -23647374#3 -23647374#2 -23647374#1 -23647374#0 72850488#0 72850488#1 72850488#2 23092124#0 23092124#1 23092124#2 23092124#3 23092124#4 23092124#5 23092124#6 23092124#7 23092124#8 23092124#9 -158079113#2 -158079113#1 158079112#0 158079112#1 158079111#0"/>
    </vehicle>
    <vehicle id="36" depart="36.00">
        <route edges="-208832421#1 -208832421#0 -31241070#1 -31241070#0 31240752#2 -46821257#2 -46821257#1 -46821257#0 46821260#1 384667678#0 384667678#1 384667678#2 384667678#3 46821262 -46821262"/>
    </vehicle>
    <vehicle id="38" depart="38.00">
        <route edges="370050695#1 -370050695#1 -370050695#0 -46763034 -30750559#1 -30750559#0 -30750557 -158079114 -158079113#2 -158079113#1 -158079113#0 -72850486 -30118878 30118878"/>
    </vehicle>
    <vehicle id="39" depart="39.00">
        <route edges="30750557 30750559#0 -46763991#1 -46763991#0 -46763020#2 -46763020#1 -46763020#0 385269541 -426696018#1 -426696018#0 23299906#8 -23647374#15 -23647374#14"/>
    </vehicle>
    <vehicle id="41" depart="41.00">
        <route edges="95641250#0 95641250#1 95641250#2 95641250#3 23092110#0 23092110#1 30119047 23060976#0 23092117#0 23092117#1 23092124#0 23299906#0 23299906#1 23299906#2 23299906#3 23299906#4 23299906#5 -46763961"/>
    </vehicle>
    <vehicle id="42" depart="42.00">
        <route edges="30749078#0 -30749078#0 -23250129#2 -46763988#6 -46763988#5 -46763988#4 -46763988#3 -46763988#2 -208936208#1 -208936208#0 23647374#13 23647374#14 46763033 -46763033"/>
    </vehicle>
    <vehicle id="45" depart="45.00">
        <route edges="-208936214#0 208936196#1 -208936181 -30749078#2 -30749078#1 -30749078#0 -23250129#2 -46763988#6 -46763988#5 -46763988#4 -46763988#3 -46763988#2 -208936208#1 -208936208#0 23647374#13 23647374#14 23647374#15 -23299906#8 426696018#0 426696018#1 -385269541 46763020#0 46763020#1 46763020#2 370050695#6 370050695#7 -208832419#3 -208832419#2 -385268967"/>
    </vehicle>
    <vehicle id="47" depart="47.00">
        <route edges="-46763021#0 46763021#0 46763021#1 46763021#2 370050695#4 370050695#5 370050695#6 370050695#7 -208832419#3 -208832419#2 -208832419#1 -208832417#3 -208832417#2 -208832417#1 -208832411 -28261509#1 -28261509#0 -158079113#2 -158079113#1 -158079113#0 -72850486 -30118878 -30118847#2 -30118847#1 -30118847#0 30751002#3 30751002#4 30751002#5 30751002#6 30751002#7 30119064#0 30119064#1 30119064#2"/>
    </vehicle>
    <vehicle id="48" depart="48.00">
        <route edges="548104335#1 95641243#7 95641243#8 95641243#9 95641243#10 30118847#1 30118847#2 30118878 72850486 158079113#0 158079113#1 158079113#2 -23092124#9 -23092124#8 -23092124#7 -23092124#6 -23092124#5 -23092124#4 -23092124#3 -23092124#2 -23092124#1 -23092124#0 -72850488#2 -72850488#1 -72850488#0 23647374#0 23647374#1 23647374#2 23647374#3 23647374#4 23647374#5 23647374#6 23647374#7 23647374#8 23647374#9 23250129#0 23250129#1 23250129#2 30749078#0 30749078#1 30749078#2 30749078#3 30749077#0 -23299927#0"/>
    </vehicle>
    <vehicle id="50" depart="50.00">
        <route edges="-208936180#6 46763971#0 46763971#1 -23250129#2 -23250129#1 -23250129#0 -23647374#9 -23647374#8 -23647374#7 -23647374#6 -23647374#5 -23647374#4 -23647374#3 -23647374#2 -23647374#1 -23647374#0 72850488#0 72850488#1 72850488#2 -23092117#1 23092117#1"/>
    </vehicle>
    <vehicle id="51" depart="51.00">
        <route edges="46763017#2 -30750559#7 -30750559#6 -30750559#5 -30750559#4 -30750559#3 -30750559#2 -30750559#1 -30750559#0 -30750557 -158079114 -23092124#9 -23092124#8 -23092124#7 -23092124#6 -23092124#5 -23092124#4 -23092124#3 23092124#3"/>
    </vehicle>
    <vehicle id="52" depart="52.00">
        <route edges="-46503476#0 -133593212#1 -133593212#0 -30749077#2 -30749077#1 -30749077#0 -30749078#3 -30749078#2 -30749078#1 -30749078#0 -46763971#1 -385275444#1 -385275444#0 -46763969#2 -46763969#1 46763972#0 46763972#1"/>
    </vehicle>
    <vehicle id="53" depart="53.00">
        <route edges="-370050700#0 540171891#0 -540171892 -23299906#10 -46763032#3 -46763033 -23647374#14 -23647374#13 208936208#0 208936208#1 46763988#2 46763988#3 46763988#4 -46763969#4 -46763969#3 -46763969#2 -46763969#1 -46763969#0 -208936214#3 208936188"/>
    </vehicle>
    <vehicle id="54" depart="54.00">
        <route edges="23092130#1 -23092130#1 -23092130#0 -23299906#3 23092134#0 23092134#1 23647374#8 23647374#9 23250129#0 23250129#1 23250129#2 30749078#0 30749078#1 30749078#2 30749078#3 30749077#0 23299927#1 -120648960#1 120779800"/>
    </vehicle>
    <vehicle id="55" depart="55.00">
        <route edges="384667107#1 -384667108 -46821259#1 -46821258#1 -46821258#0 30751002#9 23092113 30118949 23092109#0 23092109#1 23060976#0 23092117#0 23092117#1 23092124#0 23092124#1 23092124#2 23092124#3 23092124#4 208832416 -208832378 -208832386#1 -208832359 -208832376"/>
    </vehicle>
    <vehicle id="56" depart="56.00">
        <route edges="-23092138#1 -23092138#0 -23092124#2 -23092124#1 -23092124#0 -23092117#1 -23092117#0 23060976#1 23092112 30118948#0 30118948#1 95641243#1 95641243#2 95641243#3 95641243#4 95641243#5 95641243#6 95641243#7 95641243#8 -30751724#3 -30751724#2 172951041#0 172951041#1 172951048 -548104332#0 172951051#0 172951051#1"/>
    </vehicle>
    <vehicle id="57" depart="57.00">
        <route edges="95641250#1 95641250#2 95641250#3 23092110#0 23092110#1 30119047 23060976#0 23092117#0 23092117#1 -72850488#2 -72850488#1 -72850488#0"/>
    </vehicle>
    <vehicle id="58" depart="58.00">
        <route edges="-214068913 208936214#1 208936214#2 208936214#3 46763969#0 46763969#1 46763969#2 46763969#3 46763969#4 -46763988#4 -46763988#3 -46763988#2 -208936208#1 -208936208#0 -23647374#12 -23647374#11 -23647374#10 -23647374#9 -23647374#8 -23647374#7 -23647374#6 -23647374#5 -23647374#4 -23647374#3 -23647374#2 -23647374#1 -23647374#0 72850488#0 72850488#1 72850488#2 23092124#0 23092124#1 23092124#2 23092124#3 23092124#4 23092124#5 23092124#6 23092124#7 23092124#8 23092124#9 -158079113#2 -158079113#1 158079112#0 158079112#1 158079111#0 158079111#1 30750571#0 30750570"/>
    </vehicle>
    <vehicle id="59" depart="59.00">
        <route edges="-370050700#2 370050700#2 -426696018#1 -426696018#0 23299906#8 -23647374#15 -23647374#14 -23647374#13 -23647374#12 -23647374#11 -23647374#10 -23647374#9 -23647374#8 -23092134#1"/>
    </vehicle>
    <vehicle id="62" depart="62.00">
        <route edges="30119047 23060976#0 23092117#0 23092117#1 23092124#0 23092124#1 23092124#2 23092124#3 23092124#4 208832416 -208832378 -208832386#1 -208832386#0 208832417#3 208832419#1 208832419#2 208832419#3 -370050695#7 46763990"/>
    </vehicle>
    <vehicle id="63" depart="63.00">
        <route edges="23647374#11 -23647374#11 -23647374#10 -23647374#9 -23647374#8 -23092134#1 -23092134#0 23299906#3 23299906#4 23092132#0"/>
    </vehicle>
    <vehicle id="64" depart="64.00">
        <route edges="426696017#0 -426696017#0 -229045519#0 -23299906#6 -23299906#5"/>
    </vehicle>
    <vehicle id="65" depart="65.00">
        <route edges="-44166587#0 30118948#1 95641243#1 95641243#2 44034274"/>
    </vehicle>
    <vehicle id="66" depart="66.00">
        <route edges="95641243#3 95641243#4 95641243#5 95641243#6 95641243#7 95641243#8 95641243#9 95641243#10 30118847#1 30118847#2 30118878 72850486 158079113#0 158079113#1 158079113#2 158079114 30750557 30750559#0 -30750559#0"/>
    </vehicle>
    <vehicle id="67" depart="67.00">
        <route edges="385269559 -46763021#1 -46763021#0 385269600 370050700#2 -426696018#1 -426696018#0 23299906#8 -23647374#15 -23647374#14 -23647374#13 208936208#0 208936208#1 46763988#2 46763988#3 46763988#4 46763988#5 46763988#6 23250129#2 30749078#0 30749078#1 30749078#2 208936181 -208936196#1 208936196#1"/>
    </vehicle>
    <vehicle id="68" depart="68.00">
        <route edges="-120648960#0 -120512768#0 -30749077#2 -30749077#1 -30749077#0 -30749078#3 -30749078#2 -30749078#1 -30749078#0 -23250129#2 -46763988#6 -46763988#5 -46763988#4 -46763988#3 -46763988#2 -208936208#1 -208936208#0 23647374#13 23647374#14"/>
    </vehicle>
    <vehicle id="70" depart="70.00">
        <route edges="172951051#1 -172951052 30751725#1 30751725#2 30751725#3"/>
    </vehicle>
    <vehicle id="71" depart="71.00">
        <route edges="30750559#1 46763034 370050695#0 370050695#1 370050695#2 -46763022 46763022"/>
    </vehicle>
    <vehicle id="72" depart="72.00">
        <route edges="23092124#6 -23092124#6 -23092124#5 -23092124#4 -23092124#3 -23092124#2 -23092124#1 -23092124#0 -72850488#2 -72850488#1 -72850488#0 23647374#0 23647374#1 23647374#2 23647374#3 23647374#4 23647374#5 23647374#6 23647374#7 23647374#8 23647374#9 23250129#0 23250129#1 -23250129#1"/>
    </vehicle>
    <vehicle id="73" depart="73.00">
        <route edges="-28261509#2 28261509#2 28261509#3 28261509#4 28261509#5 30750559#0 30750559#1 30750559#2 30750559#3 30750559#4 30750559#5 30750559#6 30750559#7 -46763017#2 -46763017#1 -46763017#0 46763028#0"/>
    </vehicle>
    <vehicle id="75" depart="75.00">
        <route edges="-23092132#3 -23092132#2 -23092132#1 23092133 -23092130#1 -23092130#0 -23299906#3 23092134#0 23092134#1 23647374#8 23647374#9 23647374#10 23647374#11 23647374#12 208936208#0 208936208#1 46763988#2 46763988#3 46763988#4 -46763969#4 -46763969#3 -46763969#2 -46763969#1 46763972#0 46763972#1"/>
    </vehicle>
    <vehicle id="76" depart="76.00">
        <route edges="46763969#4 -46763988#4 -46763988#3 -46763988#2 -208936208#1 -208936208#0 -23647374#12 -23647374#11 -23647374#10 -23647374#9 -23647374#8 -23092134#1 -23092134#0 23299906#3 23299906#4 23092132#0"/>
    </vehicle>
    <vehicle id="77" depart="77.00">
        <route edges="370050700#3 -229045519#1 -229045519#0 -23299906#6 -23299906#5 -23299906#4 -23299906#3 -23299906#2 -23299906#1 -23299906#0 -23092124#0 -23092117#1 -23092117#0 23060976#1 23092109#3 23092109#0 23092115"/>
    </vehicle>
    <vehicle id="78" depart="78.00">
        <route edges="-46503476#1 -46503476#0 -133593212#1 -133593212#0 -30749077#2 -30749077#1 -30749077#0 -30749078#3 -30749078#2 -30749078#1 -30749078#0 -23250129#2 -23250129#1 -23250129#0 -23647374#9 -23647374#8 -23647374#7 -23647374#6 -23647374#5 -23647374#4 -23647374#3 -23647374#2 -23647374#1 -23647374#0 72850488#0 72850488#1 72850488#2 23092124#0 23092124#1 23092124#2 23092124#3 23092124#4 23092124#5 23092124#6 23092124#7 23092124#8 23092124#9 -158079113#2 -158079113#1 -158079113#0 -72850486 -30118878 -30118847#2 -30118847#1 -30118847#0 30751002#3 30751002#4 30751002#5 30751002#6 30751002#7 30751002#8 30751002#9 30751002#10 95641232#0"/>
    </vehicle>
    <vehicle id="79" depart="79.00">
        <route edges="-23647374#11 23647374#11 23647374#12 23647374#13 23647374#14 23647374#15 -23299906#8 426696018#0 426696018#1 -385269541 46763020#0 46763020#1 46763020#2 46763991#0 46763991#1 -30750559#0 -30750557"/>
    </vehicle>
    <vehicle id="81" depart="81.00">
        <route edges="-30750571#4 -30750571#3 -30750571#2 -30750571#1 -30750571#0 158079111#2 -72850486 -30118878 -30118847#2 -30118847#1 -30118847#0 30751002#3 30751002#4 30751002#5 30751002#6 30751002#7 30119064#0 30119064#1 30119064#2 30119063#0 30119063#1 30119063#2 -30119063#2"/>
    </vehicle>
    <vehicle id="82" depart="82.00">
        <route edges="-229846059 229845760#2 229845760#3 229845760#4 229845760#5 370050695#5 -46763020#2 -46763020#1 -46763020#0 385269541 -426696018#1 -426696018#0 23299906#8 -23647374#15 -23647374#14 -23647374#13 208936208#0 208936208#1 46763988#2 46763988#3 46763988#4 46763988#5 46763988#6 23250129#2 30749078#0 30749078#1 30749078#2 30749078#3 30749078#4 30749078#5 30749078#6 30749078#7 -208936179#5 -208936179#4 -208936179#3 -208936179#2 208936211"/>
    </vehicle>
    <vehicle id="83" depart="83.00">
        <route edges="-229845727#2 229845727#2 -229845760#0 46763991#1 -30750559#0 -30750557 -158079114 -158079113#2 -158079113#1 -158079113#0 -72850486 -30118878 -30118847#2 -30118847#1 95641243#11 95641243#12"/>
    </vehicle>
    <vehicle id="84" depart="84.00">
        <route edges="30750571#4 -30750571#4 -30750571#3 -30750571#2 -30750571#1 -30750571#0 158079111#2 158079113#0 158079113#1 158079113#2 -23092124#9 -23092124#8 -23092124#7 -23092124#6 -23092124#5 -23092124#4 23092142#0 23092142#1"/>
    </vehicle>
    <vehicle id="85" depart="85.00">
        <route edges="-30751725#0 30751725#0 30751725#1 30751726 95641243#10 -30118847#0 30751002#3 30751002#4 30751002#5 30751002#6 30751002#7 30119064#0 30119064#1 30119064#2 30119064#3 30119064#4 30119064#5 30119064#6 30119064#7 30119064#8 30119064#9 30119064#10 30119064#11 30119064#12"/>
    </vehicle>
    <vehicle id="86" depart="86.00">
        <route edges="-541337226#0 46763989#1 -46763988#2 -208936208#1 -208936208#0 -23647374#12 -23647374#11 -23647374#10 -23647374#9 -23647374#8 -23647374#7 -23647374#6 -23647374#5 -23647374#4 -23647374#3 -23647374#2 -23647374#1 -23647374#0 23240554#0"/>
    </vehicle>
    <vehicle id="87" depart="87.00">
        <route edges="-229845727#0 -229845760#2 -229845760#1 -229845760#0 46763991#1 -30750559#0 -30750557"/>
    </vehicle>
    <vehicle id="88" depart="88.00">
        <route edges="46763985 46763032#2 -46763033 -23647374#14 -23647374#13 208936208#0 208936208#1 46763988#2 46763988#3 46763988#4 46763988#5 46763988#6 23250129#2 -46763971#1 -46763971#0 46763971#0"/>
    </vehicle>
    <vehicle id="90" depart="90.00">
        <route edges="23092112 30118948#0 44166587#0 44166588#0 44166588#1 23092110#1 30119047 23092109#2 23092109#3 23092109#0 23092115 30119044 95641232#1 95641232#2 95641232#3 95641232#4"/>
    </vehicle>
    <vehicle id="91" depart="91.00">
        <route edges="-46763959 46763969#4 -46763988#4 -46763988#3 -46763988#2 -208936208#1 -208936208#0 -23647374#12 -23647374#11 -23647374#10 -23647374#9 -23647374#8 -23647374#7 -23647374#6 -23647374#5 -23647374#4 -23647374#3 -23647374#2 -23647374#1 -23647374#0 72850488#0 72850488#1 72850488#2 23092124#0 23092124#1 23092124#2 23092124#3 23092124#4 23092124#5 23092124#6 23092124#7 23092124#8 23092124#9 -158079113#2 -158079113#1 158079112#0 158079112#1 158079111#0 158079111#1 158079111#2"/>
    </vehicle>
    <vehicle id="92" depart="92.00">
        <route edges="-30119064#1 -30119064#0 30751002#8 30751002#9 23092113 30118949 23092109#0 23092109#1 23060976#0 23092117#0 23092117#1 23092124#0 23092124#1 23092124#2 23092124#3 23092124#4 23092124#5 23092124#6 23092124#7 23092124#8 23092124#9 158079114 30750557 30750559#0 30750559#1 30750559#2 30750559#3 30750559#4 30750559#5 30750559#6 30750559#7 30750559#8 46763027 -385270113#1 385270113#1"/>
    </vehicle>
    <vehicle id="94" depart="94.00">
        <route edges="-30751725#1 30751725#1 30751726 95641243#10 30118847#1 30118847#2 30118878 72850486 158079113#0 158079113#1 158079113#2 158079114 30750557 30750559#0 30750559#1 30750559#2 30750559#3 30750559#4 30750559#5 -46763028#3 -46763028#2"/>
    </vehicle>
    <vehicle id="95" depart="95.00">
        <route edges="23092124#6 23092124#7 23092124#8 23092124#9 158079114 30750557 -30750557"/>
    </vehicle>
    <vehicle id="96" depart="96.00">
        <route edges="95641250#2 95641250#3 23092110#0 23092110#1 30119047 23060976#0 23092117#0 23092117#1 23092124#0 23092124#1 23092124#2 23092124#3 23092124#4 23092124#5 23092124#6 23092124#7 23092124#8 23092124#9 158079114 30750557 30750559#0 30750559#1 30750559#2 30750559#3 30750559#4 30750559#5 30750559#6 30750559#7 -46763017#2"/>
    </vehicle>
    <vehicle id="98" depart="98.00">
        <route edges="30119064#0 -30119064#0 30751002#8 30751002#9 23092113 30118949 23092109#0 23092109#1 23060976#0 23092117#0 23092117#1 -72850488#2 -72850488#1 -72850488#0 23647374#0 23647374#1 23647374#2 23647374#3 23647374#4 23647374#5 23647374#6 23647374#7 23647374#8 23647374#9 23250129#0 23250129#1 -46763988#6 -46763970#1"/>
    </vehicle>
</routes>
