<?xml version="1.0" encoding="UTF-8"?>

<!-- generated on 01/20/18 12:12:18 by SUMO netconvert Version 0.32.0
<?xml version="1.0" encoding="UTF-8"?>

<configuration xmlns:xsi="http://www.w3.org/2001/XMLSchema-instance" xsi:noNamespaceSchemaLocation="http://sumo.dlr.de/xsd/netconvertConfiguration.xsd">

    <input>
        <osm-files value="map.osm"/>
    </input>

    <output>
        <output-file value="map.net.xml"/>
    </output>

    <projection>
        <proj.utm value="true"/>
    </projection>

</configuration>
-->

<net version="0.27" xmlns:xsi="http://www.w3.org/2001/XMLSchema-instance" xsi:noNamespaceSchemaLocation="http://sumo.dlr.de/xsd/net_file.xsd">

    <location netOffset="-403930.70,-1428714.16" convBoundary="0.00,0.00,11528.89,10299.80" origBoundary="80.114396,12.922344,80.220377,13.015813" projParameter="+proj=utm +zone=44 +ellps=WGS84 +datum=WGS84 +units=m +no_defs"/>

    <type id="highway.bridleway" priority="1" numLanes="1" speed="2.78" allow="pedestrian" oneway="1" width="2.00"/>
    <type id="highway.bus_guideway" priority="1" numLanes="1" speed="8.33" allow="bus" oneway="1"/>
    <type id="highway.cycleway" priority="1" numLanes="1" speed="5.56" allow="bicycle" oneway="0" width="1.00"/>
    <type id="highway.footway" priority="1" numLanes="1" speed="2.78" allow="pedestrian" oneway="1" width="2.00"/>
    <type id="highway.ford" priority="1" numLanes="1" speed="2.78" allow="army" oneway="0"/>
    <type id="highway.living_street" priority="3" numLanes="1" speed="2.78" disallow="tram rail_urban rail rail_electric ship" oneway="0"/>
    <type id="highway.motorway" priority="13" numLanes="2" speed="44.44" allow="private emergency authority army vip passenger hov taxi bus coach delivery truck trailer motorcycle evehicle custom1 custom2" oneway="1"/>
    <type id="highway.motorway_link" priority="12" numLanes="1" speed="22.22" allow="private emergency authority army vip passenger hov taxi bus coach delivery truck trailer motorcycle evehicle custom1 custom2" oneway="1"/>
    <type id="highway.path" priority="1" numLanes="1" speed="2.78" allow="bicycle pedestrian" oneway="1" width="2.00"/>
    <type id="highway.pedestrian" priority="1" numLanes="1" speed="2.78" allow="pedestrian" oneway="1" width="2.00"/>
    <type id="highway.primary" priority="9" numLanes="2" speed="27.78" disallow="tram rail_urban rail rail_electric ship" oneway="0"/>
    <type id="highway.primary_link" priority="8" numLanes="1" speed="22.22" disallow="tram rail_urban rail rail_electric ship" oneway="0"/>
    <type id="highway.raceway" priority="14" numLanes="2" speed="83.33" allow="vip" oneway="0"/>
    <type id="highway.residential" priority="4" numLanes="1" speed="13.89" disallow="tram rail_urban rail rail_electric ship" oneway="0"/>
    <type id="highway.secondary" priority="7" numLanes="2" speed="27.78" disallow="tram rail_urban rail rail_electric ship" oneway="0"/>
    <type id="highway.secondary_link" priority="6" numLanes="1" speed="22.22" disallow="tram rail_urban rail rail_electric ship" oneway="0"/>
    <type id="highway.service" priority="2" numLanes="1" speed="5.56" allow="delivery bicycle pedestrian" oneway="0"/>
    <type id="highway.services" priority="1" numLanes="1" speed="8.33" disallow="tram rail_urban rail rail_electric ship" oneway="0"/>
    <type id="highway.stairs" priority="1" numLanes="1" speed="1.39" allow="pedestrian" oneway="1" width="2.00"/>
    <type id="highway.step" priority="1" numLanes="1" speed="1.39" allow="pedestrian" oneway="1" width="2.00"/>
    <type id="highway.steps" priority="1" numLanes="1" speed="1.39" allow="pedestrian" oneway="1" width="2.00"/>
    <type id="highway.tertiary" priority="6" numLanes="1" speed="22.22" disallow="tram rail_urban rail rail_electric ship" oneway="0"/>
    <type id="highway.tertiary_link" priority="5" numLanes="1" speed="22.22" disallow="tram rail_urban rail rail_electric ship" oneway="0"/>
    <type id="highway.track" priority="1" numLanes="1" speed="5.56" disallow="tram rail_urban rail rail_electric ship" oneway="0"/>
    <type id="highway.trunk" priority="11" numLanes="2" speed="27.78" disallow="tram rail_urban rail rail_electric bicycle pedestrian ship" oneway="0"/>
    <type id="highway.trunk_link" priority="10" numLanes="1" speed="22.22" disallow="tram rail_urban rail rail_electric bicycle pedestrian ship" oneway="0"/>
    <type id="highway.unclassified" priority="5" numLanes="1" speed="13.89" disallow="tram rail_urban rail rail_electric ship" oneway="0"/>
    <type id="highway.unsurfaced" priority="1" numLanes="1" speed="8.33" disallow="tram rail_urban rail rail_electric ship" oneway="0"/>
    <type id="railway.light_rail" priority="15" numLanes="1" speed="27.78" allow="rail_urban" oneway="1"/>
    <type id="railway.preserved" priority="15" numLanes="1" speed="27.78" allow="rail" oneway="1"/>
    <type id="railway.rail" priority="15" numLanes="1" speed="83.33" allow="rail rail_electric" oneway="1"/>
    <type id="railway.subway" priority="15" numLanes="1" speed="27.78" allow="rail_urban" oneway="1"/>
    <type id="railway.tram" priority="15" numLanes="1" speed="13.89" allow="tram" oneway="1"/>

    <edge id=":1352309519_0" function="internal">
        <lane id=":1352309519_0_0" index="0" disallow="tram rail_urban rail rail_electric ship" speed="13.89" length="4.82" shape="3567.32,2924.07 3568.77,2924.39 3569.46,2925.01 3569.38,2925.93 3568.52,2927.15"/>
    </edge>
    <edge id=":1352309520_0" function="internal">
        <lane id=":1352309520_0_0" index="0" disallow="tram rail_urban rail rail_electric ship" speed="13.89" length="5.26" shape="3435.62,2986.80 3434.85,2985.48 3433.91,2984.62 3432.80,2984.21 3431.53,2984.25"/>
    </edge>
    <edge id=":1352309520_1" function="internal">
        <lane id=":1352309520_1_0" index="0" disallow="tram rail_urban rail rail_electric ship" speed="13.89" length="10.24" shape="3435.62,2986.80 3434.86,2984.11 3435.14,2981.80 3436.45,2979.89 3438.80,2978.37"/>
    </edge>
    <edge id=":1352309520_2" function="internal">
        <lane id=":1352309520_2_0" index="0" disallow="tram rail_urban rail rail_electric ship" speed="13.89" length="4.82" shape="3435.62,2986.80 3435.87,2985.34 3436.46,2984.63 3437.38,2984.67 3438.64,2985.47"/>
    </edge>
    <edge id=":1352309520_3" function="internal">
        <lane id=":1352309520_3_0" index="0" disallow="tram rail_urban rail rail_electric ship" speed="13.89" length="4.98" shape="3440.18,2981.36 3439.04,2982.10 3438.40,2983.03 3438.27,2984.16 3438.64,2985.47"/>
    </edge>
    <edge id=":1352309520_4" function="internal">
        <lane id=":1352309520_4_0" index="0" disallow="tram rail_urban rail rail_electric ship" speed="13.89" length="9.16" shape="3440.18,2981.36 3437.71,2982.50 3435.98,2983.19 3434.19,2983.70 3431.53,2984.25"/>
    </edge>
    <edge id=":1352309520_5" function="internal">
        <lane id=":1352309520_5_0" index="0" disallow="tram rail_urban rail rail_electric ship" speed="13.89" length="2.41" shape="3440.18,2981.36 3438.71,2981.13 3437.99,2980.56"/>
    </edge>
    <edge id=":1352309520_9" function="internal">
        <lane id=":1352309520_9_0" index="0" speed="13.89" length="2.41" shape="3437.99,2980.56 3438.02,2979.64 3438.80,2978.37"/>
    </edge>
    <edge id=":1352309520_6" function="internal">
        <lane id=":1352309520_6_0" index="0" disallow="tram rail_urban rail rail_electric ship" speed="13.89" length="8.37" shape="3430.89,2981.01 3433.32,2980.50 3434.96,2980.04 3436.54,2979.41 3438.80,2978.37"/>
    </edge>
    <edge id=":1352309520_7" function="internal">
        <lane id=":1352309520_7_0" index="0" disallow="tram rail_urban rail rail_electric ship" speed="13.89" length="4.71" shape="3430.89,2981.01 3433.37,2980.90 3435.48,2981.60"/>
    </edge>
    <edge id=":1352309520_8" function="internal">
        <lane id=":1352309520_8_0" index="0" disallow="tram rail_urban rail rail_electric ship" speed="13.89" length="2.41" shape="3430.89,2981.01 3432.26,2981.58 3432.83,2982.31"/>
    </edge>
    <edge id=":1352309520_10" function="internal">
        <lane id=":1352309520_10_0" index="0" speed="13.89" length="5.05" shape="3435.48,2981.60 3437.24,2983.12 3438.64,2985.47"/>
    </edge>
    <edge id=":1352309520_11" function="internal">
        <lane id=":1352309520_11_0" index="0" speed="13.89" length="2.41" shape="3432.83,2982.31 3432.58,2983.20 3431.53,2984.25"/>
    </edge>
    <edge id=":1352309521_0" function="internal">
        <lane id=":1352309521_0_0" index="0" disallow="tram rail_urban rail rail_electric ship" speed="13.89" length="5.05" shape="3496.01,2959.02 3495.31,2957.81 3494.39,2957.15 3493.27,2957.01 3491.93,2957.41"/>
    </edge>
    <edge id=":1352309521_1" function="internal">
        <lane id=":1352309521_1_0" index="0" disallow="tram rail_urban rail rail_electric ship" speed="13.89" length="9.60" shape="3496.01,2959.02 3492.38,2950.13"/>
    </edge>
    <edge id=":1352309521_2" function="internal">
        <lane id=":1352309521_2_0" index="0" disallow="tram rail_urban rail rail_electric ship" speed="13.89" length="5.27" shape="3496.01,2959.02 3495.30,2956.21 3495.65,2953.86"/>
    </edge>
    <edge id=":1352309521_3" function="internal">
        <lane id=":1352309521_3_0" index="0" disallow="tram rail_urban rail rail_electric ship" speed="13.89" length="2.41" shape="3496.01,2959.02 3496.31,2957.56 3496.92,2956.86"/>
    </edge>
    <edge id=":1352309521_16" function="internal">
        <lane id=":1352309521_16_0" index="0" speed="13.89" length="5.21" shape="3495.65,2953.86 3497.07,2951.98 3499.56,2950.57"/>
    </edge>
    <edge id=":1352309521_17" function="internal">
        <lane id=":1352309521_17_0" index="0" speed="13.89" length="2.41" shape="3496.92,2956.86 3497.84,2956.93 3499.07,2957.77"/>
    </edge>
    <edge id=":1352309521_4" function="internal">
        <lane id=":1352309521_4_0" index="0" disallow="tram rail_urban rail rail_electric ship" speed="13.89" length="5.10" shape="3500.76,2953.64 3499.56,2954.33 3498.88,2955.24 3498.72,2956.39 3499.07,2957.77"/>
    </edge>
    <edge id=":1352309521_5" function="internal">
        <lane id=":1352309521_5_0" index="0" disallow="tram rail_urban rail rail_electric ship" speed="13.89" length="9.60" shape="3500.76,2953.64 3491.93,2957.41"/>
    </edge>
    <edge id=":1352309521_6" function="internal">
        <lane id=":1352309521_6_0" index="0" disallow="tram rail_urban rail rail_electric ship" speed="13.89" length="10.33" shape="3500.76,2953.64 3497.99,2954.30 3495.67,2953.94 3493.80,2952.54 3492.38,2950.13"/>
    </edge>
    <edge id=":1352309521_7" function="internal">
        <lane id=":1352309521_7_0" index="0" disallow="tram rail_urban rail rail_electric ship" speed="13.89" length="4.82" shape="3500.76,2953.64 3499.30,2953.33 3498.62,2952.71 3498.70,2951.79 3499.56,2950.57"/>
    </edge>
    <edge id=":1352309521_8" function="internal">
        <lane id=":1352309521_8_0" index="0" disallow="tram rail_urban rail rail_electric ship" speed="13.89" length="5.06" shape="3495.43,2948.88 3496.13,2950.05 3497.05,2950.73 3498.19,2950.90 3499.56,2950.57"/>
    </edge>
    <edge id=":1352309521_9" function="internal">
        <lane id=":1352309521_9_0" index="0" disallow="tram rail_urban rail rail_electric ship" speed="13.89" length="9.60" shape="3495.43,2948.88 3499.07,2957.77"/>
    </edge>
    <edge id=":1352309521_10" function="internal">
        <lane id=":1352309521_10_0" index="0" disallow="tram rail_urban rail rail_electric ship" speed="13.89" length="5.15" shape="3495.43,2948.88 3496.11,2951.59 3495.75,2953.92"/>
    </edge>
    <edge id=":1352309521_11" function="internal">
        <lane id=":1352309521_11_0" index="0" disallow="tram rail_urban rail rail_electric ship" speed="13.89" length="2.41" shape="3495.43,2948.88 3495.14,2950.34 3494.53,2951.03"/>
    </edge>
    <edge id=":1352309521_18" function="internal">
        <lane id=":1352309521_18_0" index="0" speed="13.89" length="5.27" shape="3495.75,2953.92 3494.35,2955.86 3491.93,2957.41"/>
    </edge>
    <edge id=":1352309521_19" function="internal">
        <lane id=":1352309521_19_0" index="0" speed="13.89" length="2.41" shape="3494.53,2951.03 3493.61,2950.96 3492.38,2950.13"/>
    </edge>
    <edge id=":1352309521_12" function="internal">
        <lane id=":1352309521_12_0" index="0" disallow="tram rail_urban rail rail_electric ship" speed="13.89" length="5.26" shape="3490.54,2954.42 3491.79,2953.62 3492.51,2952.65 3492.71,2951.48 3492.38,2950.13"/>
    </edge>
    <edge id=":1352309521_13" function="internal">
        <lane id=":1352309521_13_0" index="0" disallow="tram rail_urban rail rail_electric ship" speed="13.89" length="9.80" shape="3490.54,2954.42 3499.56,2950.57"/>
    </edge>
    <edge id=":1352309521_14" function="internal">
        <lane id=":1352309521_14_0" index="0" disallow="tram rail_urban rail rail_electric ship" speed="13.89" length="10.55" shape="3490.54,2954.42 3493.33,2953.58 3495.68,2953.86 3497.59,2955.26 3499.07,2957.77"/>
    </edge>
    <edge id=":1352309521_15" function="internal">
        <lane id=":1352309521_15_0" index="0" disallow="tram rail_urban rail rail_electric ship" speed="13.89" length="4.82" shape="3490.54,2954.42 3492.01,2954.65 3492.73,2955.22 3492.71,2956.14 3491.93,2957.41"/>
    </edge>
    <edge id=":1353483965_0" function="internal">
        <lane id=":1353483965_0_0" index="0" disallow="tram rail_urban rail rail_electric ship" speed="13.89" length="4.82" shape="3498.69,3121.01 3498.43,3122.48 3497.85,3123.19 3496.93,3123.15 3495.67,3122.35"/>
    </edge>
    <edge id=":1703320343_0" function="internal">
        <lane id=":1703320343_0_0" index="0" disallow="tram rail_urban rail rail_electric ship" speed="27.78" length="8.05" shape="1642.16,1281.63 1639.70,1280.23 1638.51,1280.13 1638.58,1281.33 1639.92,1283.82"/>
    </edge>
    <edge id=":1703320343_1" function="internal">
        <lane id=":1703320343_1_0" index="0" disallow="tram rail_urban rail rail_electric ship" speed="27.78" length="24.66" shape="1643.99,1278.88 1636.46,1274.60 1632.80,1274.28 1633.03,1277.94 1637.13,1285.57"/>
    </edge>
    <edge id=":1703320445_0" function="internal">
        <lane id=":1703320445_0_0" index="0" allow="delivery bicycle pedestrian" speed="9.73" length="8.97" shape="1716.66,1580.79 1714.08,1581.47 1712.32,1581.97 1710.62,1582.61 1708.21,1583.72"/>
    </edge>
    <edge id=":1703320445_1" function="internal">
        <lane id=":1703320445_1_0" index="0" allow="delivery bicycle pedestrian" speed="9.73" length="5.44" shape="1716.66,1580.79 1713.33,1581.20 1711.36,1580.51"/>
    </edge>
    <edge id=":1703320445_2" function="internal">
        <lane id=":1703320445_2_0" index="0" disallow="tram rail_urban rail rail_electric ship" speed="13.89" length="2.41" shape="1716.66,1580.79 1715.25,1580.31 1714.63,1579.63"/>
    </edge>
    <edge id=":1703320445_9" function="internal">
        <lane id=":1703320445_9_0" index="0" speed="9.73" length="6.32" shape="1711.36,1580.51 1710.94,1580.36 1709.51,1578.29 1709.02,1574.97"/>
    </edge>
    <edge id=":1703320445_10" function="internal">
        <lane id=":1703320445_10_0" index="0" speed="13.89" length="2.41" shape="1714.63,1579.63 1714.81,1578.72 1715.79,1577.60"/>
    </edge>
    <edge id=":1703320445_3" function="internal">
        <lane id=":1703320445_3_0" index="0" disallow="tram rail_urban rail rail_electric ship" speed="9.73" length="5.35" shape="1712.32,1574.96 1712.54,1576.47 1713.19,1577.41 1714.28,1577.79 1715.79,1577.60"/>
    </edge>
    <edge id=":1703320445_4" function="internal">
        <lane id=":1703320445_4_0" index="0" allow="delivery bicycle pedestrian" speed="5.56" length="10.22" shape="1712.32,1574.96 1712.07,1578.04 1711.30,1580.54 1710.01,1582.43 1708.21,1583.72"/>
    </edge>
    <edge id=":1703320445_5" function="internal">
        <lane id=":1703320445_5_0" index="0" allow="delivery bicycle pedestrian" speed="5.56" length="4.82" shape="1712.32,1574.96 1711.50,1576.20 1710.68,1576.61 1709.85,1576.20 1709.02,1574.97"/>
    </edge>
    <edge id=":1703320445_6" function="internal">
        <lane id=":1703320445_6_0" index="0" allow="delivery bicycle pedestrian" speed="5.56" length="6.51" shape="1706.78,1580.75 1707.76,1579.98 1708.47,1578.76 1708.89,1577.09 1709.02,1574.97"/>
    </edge>
    <edge id=":1703320445_7" function="internal">
        <lane id=":1703320445_7_0" index="0" disallow="tram rail_urban rail rail_electric ship" speed="9.73" length="9.58" shape="1706.78,1580.75 1709.35,1579.56 1711.17,1578.87 1713.04,1578.33 1715.79,1577.60"/>
    </edge>
    <edge id=":1703320445_8" function="internal">
        <lane id=":1703320445_8_0" index="0" allow="delivery bicycle pedestrian" speed="5.56" length="2.41" shape="1706.78,1580.75 1708.25,1580.96 1708.98,1581.52"/>
    </edge>
    <edge id=":1703320445_11" function="internal">
        <lane id=":1703320445_11_0" index="0" speed="5.56" length="2.41" shape="1708.98,1581.52 1708.96,1582.44 1708.21,1583.72"/>
    </edge>
    <edge id=":1703320492_0" function="internal">
        <lane id=":1703320492_0_0" index="0" disallow="tram rail_urban rail rail_electric ship" speed="16.67" length="4.14" shape="1544.58,1654.29 1543.52,1654.39 1542.55,1654.68 1541.67,1655.17 1540.87,1655.87"/>
    </edge>
    <edge id=":1703320492_1" function="internal">
        <lane id=":1703320492_1_0" index="0" allow="delivery bicycle pedestrian" speed="5.56" length="11.22" shape="1544.58,1654.29 1539.80,1654.02 1536.95,1653.28 1536.05,1652.07 1537.07,1650.38"/>
    </edge>
    <edge id=":1703320492_2" function="internal">
        <lane id=":1703320492_2_0" index="0" disallow="tram rail_urban rail rail_electric ship" speed="16.67" length="13.26" shape="1544.58,1654.29 1538.60,1654.04 1535.41,1653.35 1534.99,1652.23 1537.36,1650.68"/>
    </edge>
    <edge id=":1703320492_3" function="internal">
        <lane id=":1703320492_3_0" index="0" allow="delivery bicycle pedestrian" speed="5.56" length="4.82" shape="1544.58,1654.29 1543.34,1653.46 1542.94,1652.63 1543.35,1651.81 1544.59,1650.99"/>
    </edge>
    <edge id=":1703320492_4" function="internal">
        <lane id=":1703320492_4_0" index="0" allow="delivery bicycle pedestrian" speed="16.67" length="5.33" shape="1542.14,1655.72 1544.59,1650.99"/>
    </edge>
    <edge id=":1703320492_5" function="internal">
        <lane id=":1703320492_5_0" index="0" disallow="tram rail_urban rail rail_electric ship" speed="27.78" length="1.30" shape="1542.14,1655.72 1540.87,1655.87"/>
        <lane id=":1703320492_5_1" index="1" disallow="tram rail_urban rail rail_electric ship" speed="27.78" length="1.30" shape="1539.75,1653.20 1538.49,1653.59"/>
    </edge>
    <edge id=":1703320492_7" function="internal">
        <lane id=":1703320492_7_0" index="0" allow="delivery bicycle pedestrian" speed="16.67" length="10.71" shape="1539.75,1653.20 1535.48,1654.95 1533.60,1655.07 1534.14,1653.54 1535.91,1651.64"/>
    </edge>
    <edge id=":1703320492_8" function="internal">
        <lane id=":1703320492_8_0" index="0" disallow="tram rail_urban rail rail_electric ship" speed="27.78" length="2.54" shape="1539.75,1653.20 1538.21,1653.47 1537.29,1653.14"/>
    </edge>
    <edge id=":1703320492_17" function="internal">
        <lane id=":1703320492_17_0" index="0" speed="16.67" length="1.71" shape="1535.91,1651.64 1537.07,1650.38"/>
    </edge>
    <edge id=":1703320492_18" function="internal">
        <lane id=":1703320492_18_0" index="0" speed="27.78" length="2.54" shape="1537.29,1653.14 1537.01,1652.21 1537.36,1650.68"/>
    </edge>
    <edge id=":1703320492_9" function="internal">
        <lane id=":1703320492_9_0" index="0" disallow="tram rail_urban rail rail_electric ship" speed="16.67" length="6.36" shape="1539.35,1652.77 1534.97,1648.16"/>
    </edge>
    <edge id=":1703320492_10" function="internal">
        <lane id=":1703320492_10_0" index="0" allow="delivery bicycle pedestrian" speed="5.56" length="5.68" shape="1539.35,1652.77 1540.37,1651.99 1541.59,1651.43 1543.00,1651.10 1544.59,1650.99"/>
    </edge>
    <edge id=":1703320492_11" function="internal">
        <lane id=":1703320492_11_0" index="0" disallow="tram rail_urban rail rail_electric ship" speed="16.67" length="1.18" shape="1539.35,1652.77 1538.49,1653.59"/>
    </edge>
    <edge id=":1703320492_12" function="internal">
        <lane id=":1703320492_12_0" index="0" allow="delivery bicycle pedestrian" speed="5.56" length="4.82" shape="1539.35,1652.77 1537.88,1653.03 1537.01,1652.71 1536.74,1651.83 1537.07,1650.38"/>
    </edge>
    <edge id=":1703320492_13" function="internal">
        <lane id=":1703320492_13_0" index="0" allow="delivery bicycle pedestrian" speed="16.67" length="3.62" shape="1533.71,1649.03 1537.07,1650.38"/>
    </edge>
    <edge id=":1703320492_14" function="internal">
        <lane id=":1703320492_14_0" index="0" disallow="tram rail_urban rail rail_electric ship" speed="27.78" length="1.43" shape="1536.10,1651.31 1536.41,1651.04 1536.67,1650.92 1536.96,1650.83 1537.36,1650.68"/>
    </edge>
    <edge id=":1703320492_15" function="internal">
        <lane id=":1703320492_15_0" index="0" allow="delivery bicycle pedestrian" speed="16.67" length="6.77" shape="1536.10,1651.31 1537.58,1650.95 1540.23,1650.88 1542.82,1650.94"/>
    </edge>
    <edge id=":1703320492_16" function="internal">
        <lane id=":1703320492_16_0" index="0" disallow="tram rail_urban rail rail_electric ship" speed="27.78" length="3.06" shape="1536.10,1651.31 1537.55,1650.98 1538.43,1651.26 1538.65,1651.86"/>
    </edge>
    <edge id=":1703320492_19" function="internal">
        <lane id=":1703320492_19_0" index="0" speed="16.67" length="1.77" shape="1542.82,1650.94 1542.94,1650.94 1544.59,1650.99"/>
    </edge>
    <edge id=":1703320492_20" function="internal">
        <lane id=":1703320492_20_0" index="0" speed="27.78" length="1.76" shape="1538.65,1651.86 1538.74,1652.12 1538.49,1653.59"/>
    </edge>
    <edge id=":1703320495_0" function="internal">
        <lane id=":1703320495_0_0" index="0" disallow="tram rail_urban rail rail_electric ship" speed="27.78" length="11.08" shape="2001.12,1716.16 1998.69,1713.85 1997.04,1712.26 1995.48,1710.57 1993.37,1707.97"/>
        <lane id=":1703320495_0_1" index="1" disallow="tram rail_urban rail rail_electric ship" speed="27.78" length="11.08" shape="2003.42,1713.79 2001.08,1711.57 1999.49,1710.04 1997.99,1708.42 1995.96,1705.93"/>
    </edge>
    <edge id=":1703320495_2" function="internal">
        <lane id=":1703320495_2_0" index="0" disallow="tram rail_urban rail rail_electric ship" speed="20.84" length="10.13" shape="2003.42,1713.79 2001.18,1711.14 2000.50,1709.04 2001.40,1707.49 2003.86,1706.49"/>
    </edge>
    <edge id=":1703320495_3" function="internal">
        <lane id=":1703320495_3_0" index="0" disallow="tram rail_urban rail rail_electric ship" speed="20.84" length="9.95" shape="2004.57,1709.71 2002.24,1709.88 2000.02,1709.30 1997.93,1707.98 1995.96,1705.93"/>
    </edge>
    <edge id=":1703320495_4" function="internal">
        <lane id=":1703320495_4_0" index="0" disallow="tram rail_urban rail rail_electric ship" speed="13.89" length="4.82" shape="2004.57,1709.71 2003.19,1709.18 2002.61,1708.46 2002.83,1707.56 2003.86,1706.49"/>
    </edge>
    <edge id=":1703320515_0" function="internal">
        <lane id=":1703320515_0_0" index="0" disallow="tram rail_urban rail rail_electric ship" speed="27.78" length="2.73" shape="2031.02,1737.99 2028.51,1738.63"/>
        <lane id=":1703320515_0_1" index="1" disallow="tram rail_urban rail rail_electric ship" speed="27.78" length="2.73" shape="2030.37,1734.76 2027.60,1735.45"/>
    </edge>
    <edge id=":1703320515_2" function="internal">
        <lane id=":1703320515_2_0" index="0" disallow="tram rail_urban rail rail_electric ship" speed="27.78" length="10.75" shape="2030.37,1734.76 2027.73,1734.48 2026.39,1732.74 2025.15,1730.36 2022.80,1728.17"/>
    </edge>
    <edge id=":1703320515_3" function="internal">
        <lane id=":1703320515_3_0" index="0" disallow="tram rail_urban rail rail_electric ship" speed="27.78" length="2.41" shape="2030.37,1734.76 2029.00,1734.19 2028.43,1733.46"/>
    </edge>
    <edge id=":1703320515_8" function="internal">
        <lane id=":1703320515_8_0" index="0" speed="27.78" length="2.41" shape="2028.43,1733.46 2028.67,1732.57 2029.72,1731.52"/>
    </edge>
    <edge id=":1703320515_4" function="internal">
        <lane id=":1703320515_4_0" index="0" disallow="tram rail_urban rail rail_electric ship" speed="27.78" length="4.97" shape="2025.78,1729.11 2021.21,1731.07"/>
    </edge>
    <edge id=":1703320515_5" function="internal">
        <lane id=":1703320515_5_0" index="0" disallow="tram rail_urban rail rail_electric ship" speed="27.78" length="3.27" shape="2025.78,1729.11 2029.07,1728.29"/>
        <lane id=":1703320515_5_1" index="1" disallow="tram rail_urban rail rail_electric ship" speed="27.78" length="3.27" shape="2026.69,1732.28 2029.72,1731.52"/>
    </edge>
    <edge id=":1703320515_7" function="internal">
        <lane id=":1703320515_7_0" index="0" disallow="tram rail_urban rail rail_electric ship" speed="27.78" length="2.52" shape="2026.69,1732.28 2028.10,1732.73 2028.73,1733.41 2028.71,1733.53"/>
    </edge>
    <edge id=":1703320515_9" function="internal">
        <lane id=":1703320515_9_0" index="0" speed="27.78" length="2.30" shape="2028.71,1733.53 2028.56,1734.32 2027.60,1735.45"/>
    </edge>
    <edge id=":1703320517_0" function="internal">
        <lane id=":1703320517_0_0" index="0" disallow="tram rail_urban rail rail_electric ship" speed="27.78" length="9.94" shape="2026.58,1739.18 2023.42,1739.99 2021.14,1740.18 2018.90,1739.67 2015.89,1738.42"/>
        <lane id=":1703320517_0_1" index="1" disallow="tram rail_urban rail rail_electric ship" speed="27.78" length="9.94" shape="2025.67,1736.01 2023.18,1736.65 2021.38,1736.79 2019.61,1736.39 2017.24,1735.41"/>
    </edge>
    <edge id=":1703320517_2" function="internal">
        <lane id=":1703320517_2_0" index="0" disallow="tram rail_urban rail rail_electric ship" speed="27.78" length="1.49" shape="2025.67,1736.01 2024.25,1735.56"/>
    </edge>
    <edge id=":1703320517_9" function="internal">
        <lane id=":1703320517_9_0" index="0" speed="27.78" length="3.33" shape="2024.25,1735.56 2023.63,1734.88 2023.80,1733.97 2024.76,1732.84"/>
    </edge>
    <edge id=":1703320517_3" function="internal">
        <lane id=":1703320517_3_0" index="0" disallow="tram rail_urban rail rail_electric ship" speed="27.78" length="5.23" shape="2019.94,1729.39 2021.04,1729.84 2021.86,1730.03 2022.70,1729.96 2023.85,1729.66"/>
        <lane id=":1703320517_3_1" index="1" disallow="tram rail_urban rail rail_electric ship" speed="27.78" length="5.23" shape="2018.59,1732.40 2020.33,1733.12 2021.62,1733.41 2022.94,1733.30 2024.76,1732.84"/>
    </edge>
    <edge id=":1703320517_5" function="internal">
        <lane id=":1703320517_5_0" index="0" disallow="tram rail_urban rail rail_electric ship" speed="27.78" length="4.82" shape="2018.59,1732.40 2019.38,1733.66 2019.42,1734.58 2018.71,1735.16 2017.24,1735.41"/>
    </edge>
    <edge id=":1703320517_6" function="internal">
        <lane id=":1703320517_6_0" index="0" disallow="tram rail_urban rail rail_electric ship" speed="27.78" length="5.50" shape="2019.57,1734.33 2015.89,1738.42"/>
    </edge>
    <edge id=":1703320517_7" function="internal">
        <lane id=":1703320517_7_0" index="0" disallow="tram rail_urban rail rail_electric ship" speed="27.78" length="6.60" shape="2019.57,1734.33 2021.10,1733.35 2021.71,1731.99 2022.33,1730.64 2023.85,1729.66"/>
        <lane id=":1703320517_7_1" index="1" disallow="tram rail_urban rail rail_electric ship" speed="27.78" length="6.60" shape="2020.49,1737.50 2022.01,1736.52 2022.62,1735.17 2023.24,1733.81 2024.76,1732.84"/>
    </edge>
    <edge id=":1837807173_0" function="internal">
        <lane id=":1837807173_0_0" index="0" allow="delivery bicycle pedestrian" speed="5.56" length="6.34" shape="1575.66,1649.62 1574.28,1648.11 1572.94,1647.15 1571.64,1646.75 1570.37,1646.91"/>
    </edge>
    <edge id=":1837807173_1" function="internal">
        <lane id=":1837807173_1_0" index="0" allow="delivery bicycle pedestrian" speed="5.56" length="11.76" shape="1575.66,1649.62 1574.00,1646.71 1573.85,1644.19 1575.21,1642.06 1578.09,1640.34"/>
    </edge>
    <edge id=":1837807173_2" function="internal">
        <lane id=":1837807173_2_0" index="0" allow="delivery bicycle pedestrian" speed="5.56" length="4.82" shape="1575.66,1649.62 1575.55,1648.14 1575.95,1647.31 1576.86,1647.13 1578.27,1647.60"/>
    </edge>
    <edge id=":1837807173_3" function="internal">
        <lane id=":1837807173_3_0" index="0" allow="delivery bicycle pedestrian" speed="5.56" length="5.35" shape="1579.37,1643.38 1578.06,1644.16 1577.44,1645.13 1577.51,1646.27 1578.27,1647.60"/>
    </edge>
    <edge id=":1837807173_4" function="internal">
        <lane id=":1837807173_4_0" index="0" allow="delivery bicycle pedestrian" speed="5.56" length="9.67" shape="1579.37,1643.38 1570.37,1646.91"/>
    </edge>
    <edge id=":1837807173_5" function="internal">
        <lane id=":1837807173_5_0" index="0" allow="delivery bicycle pedestrian" speed="5.56" length="4.82" shape="1579.37,1643.38 1577.91,1643.10 1577.21,1642.50 1577.27,1641.58 1578.09,1640.34"/>
    </edge>
    <edge id=":1837807173_6" function="internal">
        <lane id=":1837807173_6_0" index="0" allow="delivery bicycle pedestrian" speed="5.56" length="9.47" shape="1569.28,1643.80 1578.09,1640.34"/>
    </edge>
    <edge id=":1837807173_7" function="internal">