<?xml version="1.0" encoding="UTF-8"?>

<!-- generated on 01/20/18 12:12:37 by SUMO polyconvert Version 0.32.0
<?xml version="1.0" encoding="UTF-8"?>

<configuration xmlns:xsi="http://www.w3.org/2001/XMLSchema-instance" xsi:noNamespaceSchemaLocation="http://sumo.dlr.de/xsd/polyconvertConfiguration.xsd">

    <input>
        <net-file value="map.net.xml"/>
        <osm-files value="map.osm"/>
        <type-file value="typemap.xml"/>
    </input>

    <output>
        <output-file value="map.poly.xml"/>
    </output>

    <processing>
        <poi-layer-offset value="5"/>
    </processing>

</configuration>
-->

<additional xmlns:xsi="http://www.w3.org/2001/XMLSchema-instance" xsi:noNamespaceSchemaLocation="http://sumo.dlr.de/xsd/additional_file.xsd">
    <location netOffset="-403930.70,-1428714.16" convBoundary="-15368.97,-19623.48,11528.89,19486.40" origBoundary="79.973410,12.744489,80.220377,13.098756" projParameter="+proj=utm +zone=44 +ellps=WGS84 +datum=WGS84 +units=m +no_defs"/>

    <poly id="162441228" type="residential" color="235,235,227" fill="1" layer="-3.00" shape="2577.96,2512.34 2577.94,2518.69 2643.12,2503.49 2680.09,2493.63 2677.38,2479.71 2577.88,2504.39 2577.96,2512.34"/>
    <poly id="180145743" type="natural" color="140,196,107" fill="1" layer="-4.00" shape="1130.96,2045.79 1105.37,1982.42 849.94,1919.28 846.26,2026.68 1190.06,2655.40 1232.62,2623.21 1504.34,2930.59 1553.43,2944.48 1625.88,2894.57 1622.92,2855.22 1637.82,2800.82 1567.66,2691.41 1525.11,2660.63 1515.40,2575.38 1556.83,2558.37 1526.46,2500.37 1371.24,2344.40 1350.50,2345.41 1242.78,2285.80 1130.96,2045.79"/>
    <poly id="23251115" type="amenity" color="237,199,199" fill="1" layer="-1.00" shape="3069.77,2442.17 3102.30,2425.42 3147.42,2552.93 3112.08,2566.93 3069.77,2442.17"/>
    <poly id="23648229" type="water" color="181,209,209" fill="1" layer="-4.00" shape="2290.71,915.59 2296.38,954.09 2244.65,1042.60 2211.37,1076.54 2184.00,1115.01 2131.28,1144.31 2179.97,1267.22 2267.00,1640.34 2456.26,1611.78 2565.60,1575.40 2594.28,1538.50 2589.06,1288.68 2533.62,1170.71 2501.69,1039.66 2390.95,1006.54 2360.99,983.00 2327.39,920.01 2308.25,872.58 2290.56,870.70 2290.71,915.59"/>
    <poly id="245726155" type="unknown" color="51,128,255" fill="0" layer="-1.00" shape="-12921.95,-19623.48 -13076.60,-19576.79 -13239.63,-19324.30 -13393.17,-19082.18 -13476.12,-19023.84 -13704.12,-18863.44 -13947.02,-18690.60 -14184.79,-18480.11 -14549.44,-18421.58 -14801.60,-18422.24 -15069.26,-18424.76 -15351.82,-18424.28 -15368.97,-18398.16 -15219.15,-18130.00 -15052.78,-17827.27 -14905.32,-17556.38 -14715.67,-17209.03 -14535.50,-16881.88 -14373.88,-16590.43 -14210.26,-16288.89 -14045.09,-15990.07 -13897.66,-15722.69 -13746.70,-15451.83 -13671.18,-15158.11 -13588.54,-14841.48 -13508.67,-14534.95 -13431.21,-14238.93 -13346.23,-13925.82 -13268.72,-13620.85 -13185.69,-13305.01 -13104.23,-12989.96 -12959.34,-12663.87 -12829.01,-12360.68 -12691.62,-12050.12 -12554.22,-11737.24 -12418.40,-11429.03 -12271.13,-11091.69 -12144.01,-10805.61 -12026.94,-10534.63 -11897.96,-10241.48 -11770.45,-9947.50 -11642.87,-9653.26 -11516.70,-9367.25 -11388.14,-9075.48 -11260.80,-8780.92 -11135.74,-8495.47 -11006.51,-8201.52 -10878.67,-7911.70 -10661.69,-7603.24 -10450.83,-7306.32 -10266.62,-7049.72 -10074.25,-6780.25 -9887.41,-6517.75 -9693.48,-6244.40 -9504.29,-5981.92 -9300.53,-5694.62 -9105.84,-5423.22 -8915.45,-5152.19 -8716.44,-4875.36 -8520.57,-4599.31 -8427.42,-4275.84 -8339.43,-3971.00 -8252.60,-3666.95 -8153.95,-3312.11 -8085.16,-3071.03 -8006.06,-2796.45 -7956.12,-2629.99 -7764.48,-2363.76 -7581.82,-2106.64 -7393.34,-1847.48 -7186.04,-1559.46 -6970.79,-1258.66 -6769.35,-979.30 -6574.17,-705.28 -6389.48,-453.13 -6191.27,-174.94 -5992.98,101.95 -5972.07,130.43 -5941.05,172.67 -5835.31,316.65 -5597.13,652.34 -5400.75,920.15 -5203.45,1192.60 -5010.88,1461.57 -4809.80,1739.75 -4629.85,1992.05 -4419.65,2285.37 -4218.51,2563.21 -4114.86,2712.30 -3901.08,3004.47 -3753.91,3205.58 -3617.50,3396.70 -3515.77,3735.22 -3432.74,4006.80 -3234.06,4109.70 -3027.93,4213.50 -2707.47,4239.99 -2534.56,4252.98 -2163.52,4256.16 -1873.27,4266.75 -1569.71,4281.39 -1354.61,4288.96 -1045.20,4310.78 -720.79,4327.22 -451.45,4340.04 -300.25,4182.75 -94.20,3968.18 166.73,3703.40 348.19,3472.64 451.20,3374.22 668.86,3315.19 963.71,3232.76 1324.71,3159.36 1637.29,3084.29 1791.24,2906.14 1788.34,2712.79"/>
    <poly id="247337890" type="unknown" color="51,128,255" fill="0" layer="-1.00" shape="7326.17,19486.40 7130.55,19358.31 6981.47,19053.40 6850.20,18784.93 6761.76,18468.04 6673.76,18153.04 6582.51,17832.64 6308.94,17751.39 6213.57,17718.82 5979.80,17653.36 5679.60,17562.88 5348.18,17463.00 5186.03,17413.74 5109.47,17391.18 4718.88,17274.96 4369.49,17170.34 4052.79,17075.51 3742.23,16981.36 3433.13,16891.98 3124.12,16798.19 2811.25,16704.77 2528.86,16620.95 2237.99,16534.61 1912.76,16435.91 1608.36,16348.15 1504.32,16086.91 1365.80,15745.55 1238.77,15429.67 1111.16,15114.93 966.75,14759.97 896.99,14587.06 837.19,14442.16 712.29,14134.13 573.90,13793.10 453.95,13495.78 328.39,13184.57 64.24,12998.59 -186.08,12824.50 -464.52,12627.14 -735.49,12438.88 -999.42,12255.50 -1248.77,12076.51 -1500.70,11899.84 -1755.45,11717.62 -1916.45,11462.01 -2082.13,11201.78 -2188.41,11034.99 -2267.61,10907.95 -2422.87,10657.31 -2595.11,10386.02 -2767.37,10112.86 -2935.90,9835.99 -3110.20,9565.72 -3111.29,9211.37 -3107.95,8846.00 -3110.07,8512.09 -3110.48,8140.26 -3110.87,7771.20 -3102.80,7425.22 -3108.70,7079.28 -3113.64,6740.75 -3112.08,6395.71 -3113.22,6075.65 -3113.49,5743.56 -3113.92,5623.30 -3113.75,5410.53 -3115.48,5189.45 -3115.86,5083.06 -3160.14,4937.06 -3217.54,4765.21 -3276.84,4586.88 -3155.55,4454.71 -3026.68,4305.30 -2706.08,4308.55 -2496.84,4328.40 -2441.48,4331.08 -2264.98,4339.60 -1953.04,4354.22 -1649.46,4370.72 -1339.40,4383.51 -1030.22,4402.89 -695.63,4419.09 -422.18,4431.17 -229.59,4237.92 -31.45,4040.13 128.57,3881.30 427.00,3719.14 582.06,3651.77 874.09,3514.26 1155.67,3384.83 1436.51,3256.73 1667.95,3154.86 1859.48,2934.02 1941.44,2740.97 1855.71,2677.10"/>
    <poly id="26562015" type="building" color="255,230,230" fill="1" layer="-1.00" shape="2778.71,2975.43 2796.63,3002.85 2848.30,2967.76 2830.38,2940.34 2778.71,2975.43"/>
    <poly id="278795835" type="residential" color="235,235,227" fill="1" layer="-3.00" shape="2031.83,1696.24 1993.89,1705.98 2001.59,1714.32 2202.52,1664.14 2199.58,1655.19 2031.83,1696.24"/>
    <poly id="295992087" type="residential" color="235,235,227" fill="1" layer="-3.00" shape="3039.73,1842.74 3066.05,1839.90 3063.78,1815.26 3036.74,1818.88 3039.73,1842.74"/>
    <poly id="30118530" type="water" color="181,209,209" fill="1" layer="-4.00" shape="1655.59,2992.27 1760.68,2957.68 1775.53,2965.46 1790.53,2973.31 1885.42,2951.72 1883.46,2922.12 1995.00,2866.23 2044.07,3062.19 1724.20,3179.84 1655.59,2992.27"/>
    <poly id="30749075" type="amenity" color="237,199,199" fill="1" layer="-1.00" shape="2852.73,2722.05 2867.81,2746.57 3014.26,2948.23 2980.87,2958.61 2998.96,3016.51 3002.33,3027.26 3033.18,3049.87 3081.57,3078.93 3109.42,3159.44 2992.79,3187.96 2999.78,3215.54 2946.70,3227.85 2933.50,3230.91 2648.75,2823.59 2641.99,2750.54 2656.63,2739.03 2652.54,2685.69 2628.44,2644.88 2672.37,2619.80 2761.83,2755.63 2799.49,2741.72 2852.73,2722.05"/>
    <poly id="30749076" type="industrial" color="209,209,204" fill="1" layer="-3.00" shape="3014.26,2948.23 3096.32,2935.50 3168.85,2965.43 3249.00,2946.90 3300.77,2918.93 3309.64,2914.13 3301.08,2898.61 3299.00,2879.09 3288.23,2851.49 3242.76,2799.03 3228.82,2782.95 3210.04,2762.05 3186.11,2702.11 3144.24,2681.81 3029.27,2680.84 2862.75,2720.04 2852.73,2722.05 2867.81,2746.57 3014.26,2948.23"/>
    <poly id="30750568" type="industrial" color="209,209,204" fill="1" layer="-3.00" shape="2236.13,1695.85 2252.90,2021.61 2576.50,1981.47 2598.53,1778.11 2650.27,1660.45 2642.05,1646.56 2236.13,1695.85"/>
    <poly id="30787416" type="unknown" color="51,128,255" fill="0" layer="-1.00" shape="-14760.05,6528.43 -14645.48,6283.48 -14518.09,6015.62 -14249.52,5888.74 -13995.84,5770.24 -13744.01,5652.68 -13489.37,5535.11 -13246.82,5423.14 -13164.14,5376.56 -12888.41,5414.33 -12597.83,5440.94 -12330.53,5468.57 -12091.16,5493.54 -11748.46,5517.17 -11479.32,5534.63 -11178.54,5553.81 -10874.03,5572.99 -10562.05,5596.76 -10273.37,5616.93 -9972.57,5636.12 -9658.66,5680.26 -9339.16,5726.21 -9059.98,5692.78 -8776.17,5658.40 -8502.57,5628.68 -8221.53,5595.24 -7939.57,5559.96 -7691.11,5530.35 -7396.11,5495.94 -7260.49,5414.95 -7017.12,5266.03 -6793.25,5131.07 -6506.21,4958.86 -6231.26,4788.54 -5993.43,4651.68 -5744.49,4495.35 -5462.08,4326.86 -5198.26,4163.08 -4918.63,3997.39 -4644.59,3826.18 -4486.88,3926.44 -4171.56,4005.29 -3876.46,4088.90 -3690.05,4146.51 -3401.17,4217.63 -3342.50,4223.89 -3024.94,4245.88 -2704.71,4269.77 -2523.79,4276.44 -2182.85,4284.83 -1855.05,4300.22 -1604.89,4312.08 -1283.64,4325.74 -958.76,4344.29 -643.97,4360.78 -446.41,4368.46 -280.96,4206.20 -73.62,3996.22 144.92,3781.25 298.66,3613.08 390.48,3511.00 475.85,3427.45 709.46,3360.03 1020.90,3270.15 1333.41,3178.42 1656.21,3094.06 1814.75,2898.32 1853.40,2785.26 1882.89,2770.53"/>
    <poly id="30787653" type="unknown" color="51,128,255" fill="1" layer="-1.00" shape="1843.02,2569.45 1708.22,2631.90 1775.84,2801.90 1898.49,2726.55 1843.02,2569.45"/>
    <poly id="31240956" type="amenity" color="237,199,199" fill="1" layer="-1.00" shape="1585.06,2587.94 1817.47,2485.38 1832.02,2378.93 2070.02,2276.36 1885.99,2097.51 1835.76,2111.56 1789.07,2072.85 1823.89,2038.01 1692.63,1912.20 1534.69,2014.51 1336.12,1753.57 1314.89,1725.68 1194.39,1806.88 1254.48,1954.70 1219.32,1980.62 1358.76,2299.13 1558.71,2506.61 1585.06,2587.94"/>
    <poly id="31240968" type="amenity" color="237,199,199" fill="1" layer="-1.00" shape="1692.63,1912.20 1534.69,2014.51 1336.12,1753.57 1482.29,1665.90 1682.30,1900.12 1692.63,1912.20"/>
    <poly id="31255853" type="building" color="255,230,230" fill="1" layer="-1.00" shape="2973.39,2947.53 2997.48,2936.59 3006.67,2946.77 2979.00,2955.85 2973.39,2947.53"/>
    <poly id="31255885" type="residential" color="235,235,227" fill="1" layer="-3.00" shape="2598.97,2599.56 2707.44,2560.01 2698.78,2539.61 2597.51,2573.57 2598.97,2599.56"/>
    <poly id="31255897" type="industrial" color="209,209,204" fill="1" layer="-3.00" shape="2502.28,2612.21 2529.60,2654.74 2561.68,2621.81 2561.15,2597.53 2543.39,2377.09 2549.59,2282.70 2329.14,2346.36 2502.28,2612.21"/>
    <poly id="31276227" type="building" color="255,230,230" fill="1" layer="-1.00" shape="2739.30,2928.90 2760.78,2960.64 2781.24,2945.32 2760.62,2914.45 2739.30,2928.90"/>
    <poly id="31276228" type="building" color="255,230,230" fill="1" layer="-1.00" shape="2722.41,2862.30 2734.01,2877.51 2774.94,2852.53 2765.05,2834.71 2722.41,2862.30"/>
    <poly id="31276229" type="building" color="255,230,230" fill="1" layer="-1.00" shape="2790.99,2923.94 2800.86,2935.23 2810.66,2928.23 2801.65,2914.75 2790.99,2923.94"/>
    <poly id="31276230" type="building" color="255,230,230" fill="1" layer="-1.00" shape="2899.15,2818.60 2898.82,2827.71 2906.73,2838.21 2920.19,2829.43 2908.75,2811.62 2899.15,2818.60"/>
    <poly id="31276231" type="building" color="255,230,230" fill="1" layer="-1.00" shape="2889.03,2799.66 2884.75,2779.58 2863.86,2778.78 2866.01,2790.48 2866.95,2798.50 2871.19,2802.50 2877.86,2804.01 2887.53,2802.75 2889.03,2799.66"/>
    <poly id="31276232" type="building" color="255,230,230" fill="1" layer="-1.00" shape="2806.49,2756.15 2796.84,2762.97 2812.03,2783.89 2835.57,2768.09 2831.01,2759.77 2815.92,2769.69 2806.49,2756.15"/>
    <poly id="31276233" type="building" color="255,230,230" fill="1" layer="-1.00" shape="2779.82,2826.56 2787.72,2838.25 2812.47,2821.83 2804.86,2810.13 2779.82,2826.56"/>
    <poly id="31276234" type="building" color="255,230,230" fill="1" layer="-1.00" shape="2820.38,2838.14 2799.56,2850.55 2808.67,2862.85 2829.20,2848.59 2820.38,2838.14"/>
    <poly id="354822635" type="building" color="255,230,230" fill="1" layer="-1.00" shape="3146.44,1688.01 3160.52,1682.11 3156.14,1671.78 3142.06,1677.69 3146.44,1688.01"/>
    <poly id="354822637" type="building" color="255,230,230" fill="1" layer="-1.00" shape="3087.88,1722.10 3103.25,1720.45 3102.08,1709.59 3086.70,1711.23 3087.88,1722.10"/>
    <poly id="354822639" type="building" color="255,230,230" fill="1" layer="-1.00" shape="3204.19,1901.14 3226.51,1898.25 3225.56,1891.05 3203.25,1893.95 3204.19,1901.14"/>
    <poly id="354822641" type="building" color="255,230,230" fill="1" layer="-1.00" shape="3000.23,1694.00 3024.42,1690.76 3023.03,1680.44 2998.84,1683.69 3000.23,1694.00"/>
    <poly id="354822643" type="building" color="255,230,230" fill="1" layer="-1.00" shape="3154.55,1879.92 3168.85,1878.00 3167.61,1868.95 3153.31,1870.87 3154.55,1879.92"/>
    <poly id="354822645" type="building" color="255,230,230" fill="1" layer="-1.00" shape="3090.65,1746.65 3107.24,1744.88 3105.95,1733.02 3089.36,1734.80 3090.65,1746.65"/>
    <poly id="354822647" type="building" color="255,230,230" fill="1" layer="-1.00" shape="2969.14,1822.65 2979.20,1821.30 2977.75,1810.69 2967.69,1812.04 2969.14,1822.65"/>
    <poly id="354822649" type="building" color="255,230,230" fill="1" layer="-1.00" shape="3262.77,1996.05 3269.62,1994.22 3265.18,1977.70 3258.33,1979.53 3262.77,1996.05"/>
    <poly id="354822651" type="building" color="255,230,230" fill="1" layer="-1.00" shape="3114.33,1741.56 3129.08,1740.46 3128.47,1732.61 3113.74,1733.71 3114.33,1741.56"/>
    <poly id="354822653" type="building" color="255,230,230" fill="1" layer="-1.00" shape="3018.55,1926.82 3019.14,1932.93 3028.17,1932.07 3027.58,1925.97 3018.55,1926.82"/>
    <poly id="354822656" type="building" color="255,230,230" fill="1" layer="-1.00" shape="2993.72,1631.80 3005.49,1631.64 3005.13,1605.02 2993.36,1605.18 2993.72,1631.80"/>
    <poly id="354822664" type="building" color="255,230,230" fill="1" layer="-1.00" shape="2881.31,1662.28 2892.57,1662.13 2892.24,1637.55 2880.98,1637.70 2881.31,1662.28"/>
    <poly id="354822666" type="building" color="255,230,230" fill="1" layer="-1.00" shape="3037.62,1891.65 3046.26,1891.57 3046.14,1877.88 3037.50,1877.97 3037.62,1891.65"/>
    <poly id="354822670" type="building" color="255,230,230" fill="1" layer="-1.00" shape="3035.20,1744.55 3046.52,1743.03 3043.42,1720.16 3032.10,1721.68 3035.20,1744.55"/>
    <poly id="354822671" type="building" color="255,230,230" fill="1" layer="-1.00" shape="3373.64,1753.27 3386.49,1750.99 3384.42,1739.47 3371.58,1741.74 3373.64,1753.27"/>
    <poly id="354822675" type="building" color="255,230,230" fill="1" layer="-1.00" shape="3215.17,1680.14 3239.00,1677.05 3238.09,1670.07 3214.25,1673.16 3215.17,1680.14"/>
    <poly id="354822676" type="building" color="255,230,230" fill="1" layer="-1.00" shape="3166.45,1835.61 3180.09,1833.77 3178.89,1824.94 3165.25,1826.77 3166.45,1835.61"/>
    <poly id="354822678" type="building" color="255,230,230" fill="1" layer="-1.00" shape="3207.24,1617.95 3220.00,1615.41 3214.71,1589.11 3201.95,1591.64 3207.24,1617.95"/>
    <poly id="354822681" type="building" color="255,230,230" fill="1" layer="-1.00" shape="2988.44,2010.83 3010.85,2004.45 3008.48,1996.24 2986.07,2002.62 2988.44,2010.83"/>
    <poly id="354822682" type="building" color="255,230,230" fill="1" layer="-1.00" shape="3143.87,1712.12 3158.06,1711.06 3157.42,1702.62 3143.23,1703.69 3143.87,1712.12"/>
    <poly id="354822684" type="building" color="255,230,230" fill="1" layer="-1.00" shape="3211.16,1661.91 3236.06,1658.68 3235.34,1653.19 3210.44,1656.41 3211.16,1661.91"/>
    <poly id="354822686" type="building" color="255,230,230" fill="1" layer="-1.00" shape="3067.11,1624.69 3074.79,1624.58 3074.55,1606.67 3066.87,1606.77 3067.11,1624.69"/>
    <poly id="354822687" type="building" color="255,230,230" fill="1" layer="-1.00" shape="3322.67,1901.93 3333.44,1900.20 3332.20,1892.64 3321.43,1894.37 3322.67,1901.93"/>
    <poly id="354822689" type="building" color="255,230,230" fill="1" layer="-1.00" shape="3129.29,1703.71 3141.92,1702.77 3141.09,1691.84 3128.46,1692.78 3129.29,1703.71"/>
    <poly id="354822690" type="building" color="255,230,230" fill="1" layer="-1.00" shape="3241.98,1799.38 3254.63,1797.74 3253.74,1790.95 3241.10,1792.59 3241.98,1799.38"/>
    <poly id="354822692" type="building" color="255,230,230" fill="1" layer="-1.00" shape="3034.88,1866.71 3043.51,1865.74 3041.83,1850.93 3033.19,1851.90 3034.88,1866.71"/>
    <poly id="354822693" type="building" color="255,230,230" fill="1" layer="-1.00" shape="3280.24,1959.07 3285.70,1957.62 3284.29,1952.41 3278.83,1953.87 3280.24,1959.07"/>
    <poly id="354822695" type="building" color="255,230,230" fill="1" layer="-1.00" shape="3307.65,1904.69 3321.34,1902.49 3320.13,1894.98 3306.43,1897.20 3307.65,1904.69"/>
    <poly id="354822697" type="building" color="255,230,230" fill="1" layer="-1.00" shape="3115.00,1729.22 3123.99,1728.55 3123.47,1721.65 3114.48,1722.32 3115.00,1729.22"/>
    <poly id="354822698" type="building" color="255,230,230" fill="1" layer="-1.00" shape="3138.42,1944.47 3155.42,1942.19 3153.69,1929.57 3136.69,1931.86 3138.42,1944.47"/>
    <poly id="354822700" type="building" color="255,230,230" fill="1" layer="-1.00" shape="3359.59,1709.53 3373.24,1707.11 3372.05,1700.45 3358.39,1702.87 3359.59,1709.53"/>
    <poly id="354822702" type="building" color="255,230,230" fill="1" layer="-1.00" shape="3193.22,1836.04 3212.94,1833.49 3211.76,1824.47 3192.03,1827.03 3193.22,1836.04"/>
    <poly id="354822703" type="building" color="255,230,230" fill="1" layer="-1.00" shape="2890.86,1629.83 2897.94,1629.73 2897.81,1620.34 2890.73,1620.43 2890.86,1629.83"/>
    <poly id="354822704" type="building" color="255,230,230" fill="1" layer="-1.00" shape="3179.17,1645.51 3187.72,1644.59 3187.02,1638.18 3178.47,1639.10 3179.17,1645.51"/>
    <poly id="354822706" type="building" color="255,230,230" fill="1" layer="-1.00" shape="3378.56,1717.21 3393.58,1714.54 3392.15,1706.54 3377.12,1709.21 3378.56,1717.21"/>
    <poly id="354822707" type="building" color="255,230,230" fill="1" layer="-1.00" shape="3340.74,1939.04 3354.90,1935.28 3352.03,1924.65 3337.88,1928.41 3340.74,1939.04"/>
    <poly id="354822708" type="building" color="255,230,230" fill="1" layer="-1.00" shape="3269.86,1797.28 3281.04,1795.30 3279.55,1787.00 3268.36,1788.98 3269.86,1797.28"/>
    <poly id="354822709" type="building" color="255,230,230" fill="1" layer="-1.00" shape="3192.25,1629.59 3201.04,1628.64 3199.60,1615.53 3190.82,1616.47 3192.25,1629.59"/>
    <poly id="354822710" type="building" color="255,230,230" fill="1" layer="-1.00" shape="3072.40,1734.92 3079.88,1734.12 3077.60,1713.10 3070.11,1713.90 3072.40,1734.92"/>
    <poly id="354822711" type="building" color="255,230,230" fill="1" layer="-1.00" shape="3243.94,1895.33 3254.90,1893.91 3253.91,1886.32 3242.95,1887.74 3243.94,1895.33"/>
    <poly id="354822712" type="building" color="255,230,230" fill="1" layer="-1.00" shape="3175.36,1699.48 3190.64,1697.49 3188.32,1679.84 3173.04,1681.82 3175.36,1699.48"/>
    <poly id="354822713" type="building" color="255,230,230" fill="1" layer="-1.00" shape="3346.50,1862.52 3354.90,1861.18 3353.05,1849.80 3344.65,1851.15 3346.50,1862.52"/>
    <poly id="354822714" type="building" color="255,230,230" fill="1" layer="-1.00" shape="2989.55,1750.44 2996.98,1750.26 2996.64,1736.00 2989.21,1736.16 2989.55,1750.44"/>
    <poly id="354822715" type="building" color="255,230,230" fill="1" layer="-1.00" shape="3319.83,1941.20 3325.68,1939.64 3323.06,1929.99 3317.22,1931.54 3319.83,1941.20"/>
    <poly id="354822716" type="building" color="255,230,230" fill="1" layer="-1.00" shape="3292.19,1817.70 3303.44,1815.71 3299.52,1793.95 3288.28,1795.95 3292.19,1817.70"/>
    <poly id="354822717" type="building" color="255,230,230" fill="1" layer="-1.00" shape="3159.51,1795.49 3178.35,1792.96 3177.01,1783.23 3158.18,1785.75 3159.51,1795.49"/>
    <poly id="354822719" type="building" color="255,230,230" fill="1" layer="-1.00" shape="3233.92,1918.02 3262.22,1914.35 3260.42,1900.59 3232.12,1904.26 3233.92,1918.02"/>
    <poly id="354822720" type="building" color="255,230,230" fill="1" layer="-1.00" shape="2987.05,1986.09 3000.25,1982.33 2997.97,1974.41 2984.77,1978.17 2987.05,1986.09"/>
    <poly id="354822721" type="building" color="255,230,230" fill="1" layer="-1.00" shape="3094.18,1769.39 3110.56,1767.64 3109.49,1757.73 3093.10,1759.48 3094.18,1769.39"/>
    <poly id="354822723" type="building" color="255,230,230" fill="1" layer="-1.00" shape="3153.41,1909.91 3168.54,1907.86 3167.18,1897.90 3152.05,1899.93 3153.41,1909.91"/>
    <poly id="354822724" type="building" color="255,230,230" fill="1" layer="-1.00" shape="3094.84,1793.32 3110.21,1791.68 3109.40,1784.25 3094.04,1785.89 3094.84,1793.32"/>
    <poly id="354822725" type="building" color="255,230,230" fill="1" layer="-1.00" shape="3033.79,1766.85 3041.27,1765.84 3039.43,1752.28 3031.94,1753.29 3033.79,1766.85"/>
    <poly id="354822726" type="building" color="255,230,230" fill="1" layer="-1.00" shape="3318.80,1985.18 3324.87,1983.56 3321.03,1969.27 3314.95,1970.89 3318.80,1985.18"/>
    <poly id="354822727" type="building" color="255,230,230" fill="1" layer="-1.00" shape="3137.53,1774.17 3147.36,1772.84 3145.79,1761.28 3135.95,1762.60 3137.53,1774.17"/>
    <poly id="354822729" type="building" color="255,230,230" fill="1" layer="-1.00" shape="2923.48,1615.86 2930.83,1615.76 2930.72,1607.34 2923.36,1607.43 2923.48,1615.86"/>
    <poly id="354822731" type="building" color="255,230,230" fill="1" layer="-1.00" shape="3254.71,1617.89 3256.85,1622.93 3264.53,1619.71 3262.38,1614.66 3254.71,1617.89"/>
    <poly id="354822732" type="building" color="255,230,230" fill="1" layer="-1.00" shape="2752.63,1618.03 2758.81,1617.95 2758.67,1607.32 2752.48,1607.39 2752.63,1618.03"/>
    <poly id="354822733" type="building" color="255,230,230" fill="1" layer="-1.00" shape="3343.40,1756.18 3365.93,1752.18 3363.87,1740.70 3341.34,1744.70 3343.40,1756.18"/>
    <poly id="354822734" type="building" color="255,230,230" fill="1" layer="-1.00" shape="3039.20,1914.65 3049.49,1914.28 3049.03,1901.83 3038.74,1902.21 3039.20,1914.65"/>
    <poly id="354822736" type="building" color="255,230,230" fill="1" layer="-1.00" shape="3220.75,1725.72 3234.46,1723.94 3231.84,1703.88 3218.11,1705.66 3220.75,1725.72"/>
    <poly id="354822737" type="building" color="255,230,230" fill="1" layer="-1.00" shape="3247.86,1688.10 3266.04,1684.69 3264.16,1674.79 3245.98,1678.19 3247.86,1688.10"/>
    <poly id="354822738" type="building" color="255,230,230" fill="1" layer="-1.00" shape="3361.82,1936.41 3384.99,1931.40 3381.85,1917.09 3358.68,1922.10 3361.82,1936.41"/>
    <poly id="354822739" type="building" color="255,230,230" fill="1" layer="-1.00" shape="2947.98,1694.67 2954.67,1693.77 2953.60,1685.88 2946.91,1686.79 2947.98,1694.67"/>
    <poly id="354822740" type="building" color="255,230,230" fill="1" layer="-1.00" shape="3327.20,1779.39 3341.51,1776.86 3338.82,1761.83 3324.51,1764.36 3327.20,1779.39"/>
    <poly id="354822742" type="building" color="255,230,230" fill="1" layer="-1.00" shape="3132.32,1884.75 3145.78,1882.93 3144.90,1876.46 3131.45,1878.26 3132.32,1884.75"/>
    <poly id="354822743" type="building" color="255,230,230" fill="1" layer="-1.00" shape="3202.95,1890.35 3220.86,1888.04 3219.56,1878.15 3201.66,1880.47 3202.95,1890.35"/>
    <poly id="354822744" type="building" color="255,230,230" fill="1" layer="-1.00" shape="3304.92,1689.36 3321.98,1686.18 3320.66,1679.25 3303.61,1682.43 3304.92,1689.36"/>
    <poly id="354822745" type="building" color="255,230,230" fill="1" layer="-1.00" shape="3009.28,1636.29 3020.29,1636.15 3019.93,1610.25 3008.92,1610.39 3009.28,1636.29"/>
    <poly id="354822746" type="building" color="255,230,230" fill="1" layer="-1.00" shape="3357.60,1825.50 3364.43,1824.40 3363.03,1815.83 3356.21,1816.92 3357.60,1825.50"/>
    <poly id="354822748" type="building" color="255,230,230" fill="1" layer="-1.00" shape="3216.32,1822.36 3226.51,1821.03 3225.44,1812.96 3215.26,1814.28 3216.32,1822.36"/>
    <poly id="354822750" type="building" color="255,230,230" fill="1" layer="-1.00" shape="3017.04,1817.63 3039.09,1814.68 3036.98,1799.10 3014.92,1802.06 3017.04,1817.63"/>
    <poly id="354822751" type="building" color="255,230,230" fill="1" layer="-1.00" shape="3281.21,1988.00 3286.19,1986.67 3282.51,1973.04 3277.53,1974.36 3281.21,1988.00"/>
    <poly id="354822752" type="building" color="255,230,230" fill="1" layer="-1.00" shape="3318.72,1859.54 3326.52,1858.28 3324.81,1847.75 3317.00,1849.02 3318.72,1859.54"/>
    <poly id="354822753" type="building" color="255,230,230" fill="1" layer="-1.00" shape="3161.80,1767.39 3174.95,1765.63 3173.61,1755.81 3160.46,1757.58 3161.80,1767.39"/>
    <poly id="354822754" type="building" color="255,230,230" fill="1" layer="-1.00" shape="3107.33,1879.24 3123.24,1877.54 3122.07,1866.66 3106.16,1868.36 3107.33,1879.24"/>
    <poly id="354822756" type="building" color="255,230,230" fill="1" layer="-1.00" shape="3187.98,1782.71 3208.88,1780.00 3207.38,1768.65 3186.49,1771.35 3187.98,1782.71"/>
    <poly id="354822757" type="building" color="255,230,230" fill="1" layer="-1.00" shape="3160.13,1801.52 3161.67,1812.72 3180.76,1810.14 3179.23,1798.95 3160.13,1801.52"/>
    <poly id="354822758" type="building" color="255,230,230" fill="1" layer="-1.00" shape="3271.72,1650.05 3280.81,1648.35 3277.61,1631.45 3268.52,1633.15 3271.72,1650.05"/>
    <poly id="354822759" type="building" color="255,230,230" fill="1" layer="-1.00" shape="2793.80,1629.82 2803.50,1629.68 2803.21,1608.36 2793.51,1608.49 2793.80,1629.82"/>
    <poly id="354822760" type="building" color="255,230,230" fill="1" layer="-1.00" shape="3319.23,1614.66 3321.89,1623.15 3339.05,1617.84 3336.40,1609.35 3319.23,1614.66"/>
    <poly id="354822761" type="building" color="255,230,230" fill="1" layer="-1.00" shape="3054.64,1895.22 3055.43,1902.05 3065.30,1900.94 3064.52,1894.11 3054.64,1895.22"/>
    <poly id="354822762" type="building" color="255,230,230" fill="1" layer="-1.00" shape="3262.03,1949.45 3267.83,1947.91 3265.96,1940.98 3260.17,1942.53 3262.03,1949.45"/>
    <poly id="354822764" type="building" color="255,230,230" fill="1" layer="-1.00" shape="3371.16,1778.10 3381.14,1776.33 3378.03,1759.03 3368.05,1760.80 3371.16,1778.10"/>
    <poly id="354822765" type="building" color="255,230,230" fill="1" layer="-1.00" shape="3142.78,1673.90 3152.01,1670.02 3148.35,1661.40 3139.12,1665.28 3142.78,1673.90"/>
    <poly id="354822766" type="building" color="255,230,230" fill="1" layer="-1.00" shape="3061.30,1678.97 3067.41,1677.64 3063.62,1660.42 3057.51,1661.76 3061.30,1678.97"/>
    <poly id="354822768" type="building" color="255,230,230" fill="1" layer="-1.00" shape="3208.23,1925.15 3218.19,1923.87 3216.78,1913.19 3206.84,1914.48 3208.23,1925.15"/>
    <poly id="354822769" type="building" color="255,230,230" fill="1" layer="-1.00" shape="3245.69,1676.43 3263.42,1673.12 3261.53,1663.19 3243.82,1666.50 3245.69,1676.43"/>
    <poly id="354822770" type="building" color="255,230,230" fill="1" layer="-1.00" shape="2981.14,1705.20 2988.81,1704.17 2987.64,1695.55 2979.96,1696.58 2981.14,1705.20"/>
    <poly id="354822771" type="building" color="255,230,230" fill="1" layer="-1.00" shape="3211.47,1962.18 3219.86,1959.94 3217.68,1951.87 3209.30,1954.11 3211.47,1962.18"/>
    <poly id="354822773" type="building" color="255,230,230" fill="1" layer="-1.00" shape="3154.30,1866.62 3166.73,1864.94 3165.71,1857.40 3153.27,1859.08 3154.30,1866.62"/>
    <poly id="354822774" type="building" color="255,230,230" fill="1" layer="-1.00" shape="3082.18,1710.18 3102.03,1708.06 3100.87,1697.32 3081.01,1699.45 3082.18,1710.18"/>
    <poly id="354822776" type="building" color="255,230,230" fill="1" layer="-1.00" shape="3205.18,1912.69 3216.68,1911.20 3215.41,1901.51 3203.91,1903.00 3205.18,1912.69"/>
    <poly id="354822777" type="building" color="255,230,230" fill="1" layer="-1.00" shape="3056.36,1931.64 3064.66,1931.20 3064.03,1919.74 3055.75,1920.18 3056.36,1931.64"/>
    <poly id="354822778" type="building" color="255,230,230" fill="1" layer="-1.00" shape="3045.07,1866.73 3056.39,1865.46 3055.24,1855.32 3043.92,1856.60 3045.07,1866.73"/>
    <poly id="354822779" type="building" color="255,230,230" fill="1" layer="-1.00" shape="3369.24,1674.31 3377.42,1672.85 3375.37,1661.45 3367.18,1662.90 3369.24,1674.31"/>
    <poly id="354822780" type="building" color="255,230,230" fill="1" layer="-1.00" shape="2925.68,1814.29 2929.02,1819.87 2938.29,1814.40 2934.96,1808.82 2925.68,1814.29"/>
    <poly id="354822781" type="building" color="255,230,230" fill="1" layer="-1.00" shape="3047.49,1626.90 3059.69,1626.73 3059.40,1604.96 3047.20,1605.12 3047.49,1626.90"/>
    <poly id="354822783" type="building" color="255,230,230" fill="1" layer="-1.00" shape="3067.44,1943.47 3075.56,1941.96 3073.75,1932.31 3065.62,1933.82 3067.44,1943.47"/>
    <poly id="354822785" type="building" color="255,230,230" fill="1" layer="-1.00" shape="3065.26,1809.76 3081.24,1808.04 3080.14,1797.84 3064.15,1799.55 3065.26,1809.76"/>
    <poly id="354822786" type="building" color="255,230,230" fill="1" layer="-1.00" shape="2828.70,1614.38 2839.51,1614.24 2839.42,1607.73 2828.62,1607.88 2828.70,1614.38"/>
    <poly id="354822789" type="building" color="255,230,230" fill="1" layer="-1.00" shape="3247.32,1656.49 3255.78,1654.90 3252.79,1639.19 3244.34,1640.78 3247.32,1656.49"/>
    <poly id="354822790" type="building" color="255,230,230" fill="1" layer="-1.00" shape="2972.60,1928.06 2976.39,1941.10 2991.81,1936.68 2988.03,1923.64 2972.60,1928.06"/>