<?xml version="1.0" encoding="UTF-8"?>
<!-- generated on 2018-01-20 12:16:02.107353 by $Id$
  options: -n map.net.xml -r map.rou.xml -e 100 -l
-->
<routes xmlns:xsi="http://www.w3.org/2001/XMLSchema-instance" xsi:noNamespaceSchemaLocation="http://sumo.dlr.de/xsd/routes_file.xsd">
    <trip id="0" depart="0.00" from="44169608" to="23250129#1"/>
    <trip id="1" depart="1.00" from="-23250129#1" to="23647374#8"/>
    <trip id="2" depart="2.00" from="208936219#3" to="208936212"/>
    <trip id="3" depart="3.00" from="31241065" to="208936185#0"/>
    <trip id="4" depart="4.00" from="-46763992#1" to="-172951041#0"/>
    <trip id="5" depart="5.00" from="-548104337" to="385269609"/>
    <trip id="6" depart="6.00" from="23092141" to="-208936214#1"/>
    <trip id="7" depart="7.00" from="23647374#8" to="-31240752#0"/>
    <trip id="8" depart="8.00" from="95641250#0" to="120512768#0"/>
    <trip id="9" depart="9.00" from="95641250#1" to="95641250#1"/>
    <trip id="10" depart="10.00" from="46503478" to="214068913"/>
    <trip id="11" depart="11.00" from="46763032#0" to="95641232#4"/>
    <trip id="12" depart="12.00" from="208936200" to="-208936196#1"/>
    <trip id="13" depart="13.00" from="30751002#4" to="-229846058"/>
    <trip id="14" depart="14.00" from="-208832416" to="-133593212#4"/>
    <trip id="15" depart="15.00" from="-548104337" to="44074949"/>
    <trip id="16" depart="16.00" from="-30751725#0" to="95641250#1"/>
    <trip id="17" depart="17.00" from="31240752#0" to="72850488#1"/>
    <trip id="18" depart="18.00" from="158079112#1" to="23092115"/>
    <trip id="19" depart="19.00" from="46821260#3" to="95641243#12"/>
    <trip id="20" depart="20.00" from="23092124#9" to="208832421#1"/>
    <trip id="21" depart="21.00" from="-46821263" to="-208832417#1"/>
    <trip id="22" depart="22.00" from="46763988#1" to="426696017#0"/>
    <trip id="23" depart="23.00" from="-31241092" to="-208936204#0"/>
    <trip id="24" depart="24.00" from="158079111#1" to="44166587#0"/>
    <trip id="25" depart="25.00" from="30751002#1" to="-46763972#2"/>
    <trip id="26" depart="26.00" from="30751002#0" to="214068913"/>
    <trip id="27" depart="27.00" from="158079111#0" to="-46763023#2"/>
    <trip id="28" depart="28.00" from="-46763971#0" to="95641232#0"/>
    <trip id="29" depart="29.00" from="46763991#1" to="541337226#1"/>
    <trip id="30" depart="30.00" from="-23299927#0" to="-30118878"/>
    <trip id="31" depart="31.00" from="-23240554#0" to="-385269719"/>
    <trip id="32" depart="32.00" from="-31241065" to="30751002#1"/>
    <trip id="33" depart="33.00" from="46821260#0" to="46821257#2"/>
    <trip id="34" depart="34.00" from="158079111#1" to="-208832416"/>
    <trip id="35" depart="35.00" from="-46503475" to="158079111#0"/>
    <trip id="36" depart="36.00" from="-208832421#1" to="-46821262"/>
    <trip id="37" depart="37.00" from="23647374#12" to="384667111"/>
    <trip id="38" depart="38.00" from="370050695#1" to="30118878"/>
    <trip id="39" depart="39.00" from="30750557" to="-23647374#14"/>
    <trip id="40" depart="40.00" from="95641232#1" to="-46503475"/>
    <trip id="41" depart="41.00" from="95641250#0" to="-46763961"/>
    <trip id="42" depart="42.00" from="30749078#0" to="-46763033"/>
    <trip id="43" depart="43.00" from="23092115" to="30119063#3"/>
    <trip id="44" depart="44.00" from="95641232#4" to="30119047"/>
    <trip id="45" depart="45.00" from="-208936214#0" to="-385268967"/>
    <trip id="46" depart="46.00" from="-31240752#1" to="-548104335#1"/>
    <trip id="47" depart="47.00" from="-46763021#0" to="30119064#2"/>
    <trip id="48" depart="48.00" from="548104335#1" to="-23299927#0"/>
    <trip id="49" depart="49.00" from="95641250#1" to="-46821263"/>
    <trip id="50" depart="50.00" from="-208936180#6" to="23092117#1"/>
    <trip id="51" depart="51.00" from="46763017#2" to="23092124#3"/>
    <trip id="52" depart="52.00" from="-46503476#0" to="46763972#1"/>
    <trip id="53" depart="53.00" from="-370050700#0" to="208936188"/>
    <trip id="54" depart="54.00" from="23092130#1" to="120779800"/>
    <trip id="55" depart="55.00" from="384667107#1" to="-208832376"/>
    <trip id="56" depart="56.00" from="-23092138#1" to="172951051#1"/>
    <trip id="57" depart="57.00" from="95641250#1" to="-72850488#0"/>
    <trip id="58" depart="58.00" from="-214068913" to="30750570"/>
    <trip id="59" depart="59.00" from="-370050700#2" to="-23092134#1"/>
    <trip id="60" depart="60.00" from="-384667109#0" to="-31240752#2"/>
    <trip id="61" depart="61.00" from="-384667107#2" to="23092110#0"/>
    <trip id="62" depart="62.00" from="30119047" to="46763990"/>
    <trip id="63" depart="63.00" from="23647374#11" to="23092132#0"/>
    <trip id="64" depart="64.00" from="426696017#0" to="-23299906#5"/>
    <trip id="65" depart="65.00" from="-44166587#0" to="44034274"/>
    <trip id="66" depart="66.00" from="95641243#3" to="-30750559#0"/>
    <trip id="67" depart="67.00" from="385269559" to="208936196#1"/>
    <trip id="68" depart="68.00" from="-120648960#0" to="23647374#14"/>
    <trip id="69" depart="69.00" from="46763036#1" to="-46821260#0"/>
    <trip id="70" depart="70.00" from="172951051#1" to="30751725#3"/>
    <trip id="71" depart="71.00" from="30750559#1" to="46763022"/>
    <trip id="72" depart="72.00" from="23092124#6" to="-23250129#1"/>
    <trip id="73" depart="73.00" from="-28261509#2" to="46763028#0"/>
    <trip id="74" depart="74.00" from="208832419#3" to="95641250#3"/>
    <trip id="75" depart="75.00" from="-23092132#3" to="46763972#1"/>
    <trip id="76" depart="76.00" from="46763969#4" to="23092132#0"/>
    <trip id="77" depart="77.00" from="370050700#3" to="23092115"/>
    <trip id="78" depart="78.00" from="-46503476#1" to="95641232#0"/>
    <trip id="79" depart="79.00" from="-23647374#11" to="-30750557"/>
    <trip id="80" depart="80.00" from="-31241092" to="384667111"/>
    <trip id="81" depart="81.00" from="-30750571#4" to="-30119063#2"/>
    <trip id="82" depart="82.00" from="-229846059" to="208936211"/>
    <trip id="83" depart="83.00" from="-229845727#2" to="95641243#12"/>
    <trip id="84" depart="84.00" from="30750571#4" to="23092142#1"/>
    <trip id="85" depart="85.00" from="-30751725#0" to="30119064#12"/>
    <trip id="86" depart="86.00" from="-541337226#0" to="23240554#0"/>
    <trip id="87" depart="87.00" from="-229845727#0" to="-30750557"/>
    <trip id="88" depart="88.00" from="46763985" to="46763971#0"/>
    <trip id="89" depart="89.00" from="23092115" to="-25679395"/>
    <trip id="90" depart="90.00" from="23092112" to="95641232#4"/>
    <trip id="91" depart="91.00" from="-46763959" to="158079111#2"/>
    <trip id="92" depart="92.00" from="-30119064#1" to="385270113#1"/>
    <trip id="93" depart="93.00" from="-208832378" to="31241092"/>
    <trip id="94" depart="94.00" from="-30751725#1" to="-46763028#2"/>
    <trip id="95" depart="95.00" from="23092124#6" to="-30750557"/>
    <trip id="96" depart="96.00" from="95641250#2" to="-46763017#2"/>
    <trip id="97" depart="97.00" from="-31240752#2" to="-208832416"/>
    <trip id="98" depart="98.00" from="30119064#0" to="-46763970#1"/>
    <trip id="99" depart="99.00" from="23250129#1" to="384667111"/>
</routes>
