<?xml version="1.0" encoding="UTF-8"?>

<!-- generated on 03/16/18 20:37:26 by SUMO polyconvert Version 0.32.0
<?xml version="1.0" encoding="UTF-8"?>

<configuration xmlns:xsi="http://www.w3.org/2001/XMLSchema-instance" xsi:noNamespaceSchemaLocation="http://sumo.dlr.de/xsd/polyconvertConfiguration.xsd">

    <input>
        <net-file value="tnagar.net.xml"/>
        <osm-files value="tnagar.osm"/>
        <type-file value="osmPolyconvert.typ.xml"/>
    </input>

    <output>
        <output-file value="tnagar.poly.xml"/>
    </output>

    <processing>
        <poi-layer-offset value="5"/>
    </processing>

</configuration>
-->

<additional xmlns:xsi="http://www.w3.org/2001/XMLSchema-instance" xsi:noNamespaceSchemaLocation="http://sumo.dlr.de/xsd/additional_file.xsd">
    <location netOffset="-415518.33,-1438004.22" convBoundary="-6155.43,-563.72,6212.27,6549.41" origBoundary="80.164195,13.001445,80.286711,13.108623" projParameter="+proj=utm +zone=44 +ellps=WGS84 +datum=WGS84 +units=m +no_defs"/>

    <poly id="110566014" type="building" color="255,230,230" fill="1" layer="-1.00" shape="709.96,3397.10 699.71,3399.84 702.61,3410.49 712.86,3407.74 709.96,3397.10"/>
    <poly id="110566016" type="building" color="255,230,230" fill="1" layer="-1.00" shape="3443.23,1665.11 3439.12,1658.53 3443.48,1656.24 3395.02,1578.53 3389.52,1581.90 3343.67,1508.39 3349.17,1505.00 3323.77,1467.16 3291.00,1427.95 3309.35,1414.19 3340.74,1453.39 3367.53,1491.70 3374.28,1487.59 3420.87,1563.10 3414.12,1567.21 3462.42,1645.48 3467.96,1642.58 3472.42,1649.81 3443.23,1665.11"/>
    <poly id="125234722" type="amenity" color="237,199,199" fill="1" layer="-1.00" shape="834.47,1941.30 820.38,1930.51 799.73,1914.70 775.56,1894.37 744.08,1863.77 688.34,1799.30 665.36,1773.33 645.79,1757.50 669.57,1767.63 719.67,1831.59 815.29,1915.09 833.16,1930.00 834.47,1941.30"/>
    <poly id="127292386" type="residential" color="235,235,227" fill="1" layer="-3.00" shape="3257.89,1683.37 3177.30,1578.40 3137.61,1534.59 3132.92,1521.89 3176.20,1499.62 3192.19,1497.44 3204.95,1486.99 3204.91,1473.12 3203.72,1460.41 3192.02,1441.94 3186.45,1426.76 3213.03,1411.41 3296.94,1470.64 3368.62,1585.79 3262.70,1639.25 3282.57,1668.10 3257.89,1683.37"/>
    <poly id="127574706" type="water" color="181,209,209" fill="1" layer="-4.00" shape="1728.63,1607.19 1748.69,1649.30 1735.27,1664.15 1715.66,1698.03 1695.37,1719.48 1684.33,1728.18 1662.25,1733.45 1615.72,1737.63 1572.67,1734.30 1536.00,1728.05 1505.12,1713.12 1475.41,1700.49 1457.93,1688.98 1448.03,1685.54 1430.60,1690.21 1415.50,1700.09 1406.79,1706.48 1389.80,1727.00 1389.95,1713.46 1397.47,1701.30 1416.61,1684.48 1430.56,1676.92 1440.45,1676.89 1483.52,1688.90 1511.48,1700.95 1553.99,1716.43 1586.01,1721.54 1648.26,1721.36 1665.44,1716.84 1680.78,1703.92 1707.43,1670.31 1716.12,1658.15 1717.22,1635.60 1728.63,1607.19"/>
    <poly id="127574708" type="water" color="181,209,209" fill="1" layer="-4.00" shape="1519.33,1794.00 1510.60,1792.29 1509.42,1785.36 1509.97,1778.42 1511.12,1771.48 1510.50,1761.65 1514.57,1760.49 1519.82,1766.82 1527.41,1771.43 1535.55,1770.82 1540.79,1774.28 1543.14,1780.63 1535.60,1786.43 1519.33,1794.00"/>
    <poly id="127574716" type="water" color="181,209,209" fill="1" layer="-4.00" shape="1395.78,1914.60 1389.35,1904.21 1389.92,1897.85 1395.13,1890.32 1409.65,1882.76 1415.49,1891.41 1417.85,1901.24 1413.22,1909.34 1402.76,1914.58 1395.78,1914.60"/>
    <poly id="130109380" type="commercial" color="209,209,204" fill="1" layer="-3.00" shape="2567.16,3024.32 2680.69,3110.73 2710.73,3143.57 2724.22,3178.29 2720.40,3183.17 2631.54,3194.16 2569.94,3075.65 2540.80,3053.85 2567.16,3024.32"/>
    <poly id="130109384" type="commercial" color="209,209,204" fill="1" layer="-3.00" shape="1794.74,2680.58 1794.33,2673.51 1831.92,2590.38 1840.68,2589.32 2023.79,2696.12 2025.96,2708.21 1986.48,2769.82 1794.74,2680.58"/>
    <poly id="136185835" type="building" color="255,230,230" fill="1" layer="-1.00" shape="3281.13,3797.74 3291.20,3798.10 3292.29,3767.40 3282.23,3767.06 3281.13,3797.74"/>
    <poly id="155211631" type="building" color="255,230,230" fill="1" layer="-1.00" shape="1347.24,4449.52 1343.29,4446.43 1338.39,4418.45 1342.13,4414.32 1359.78,4411.79 1364.88,4446.99 1347.24,4449.52"/>
    <poly id="155211632" type="landuse" color="194,194,130" fill="1" layer="-3.00" shape="1335.18,4480.54 1342.38,4487.50 1384.74,4484.17 1370.82,4404.06 1324.56,4411.21 1335.18,4480.54"/>
    <poly id="156240637" type="amenity" color="237,199,199" fill="1" layer="-1.00" shape="3937.32,3602.33 3924.20,3604.09 3915.90,3555.79 3941.69,3558.20 3947.00,3561.09 3954.20,3574.76 3948.24,3576.49 3959.38,3593.05 3948.57,3600.32 3937.32,3602.33"/>
    <poly id="156240656" type="amenity" color="237,199,199" fill="1" layer="-1.00" shape="3948.24,3576.49 3959.38,3593.05 3966.82,3588.03 3957.64,3573.43 3954.20,3574.76 3948.24,3576.49"/>
    <poly id="156240658" type="amenity" color="237,199,199" fill="1" layer="-1.00" shape="3978.03,3611.69 3981.73,3607.60 3966.82,3588.03 3959.38,3593.05 3948.57,3600.32 3937.32,3602.33 3944.38,3618.50 3978.03,3611.69"/>
    <poly id="156240660" type="parking" color="184,184,179" fill="1" layer="-1.00" shape="3944.38,3618.50 3902.77,3625.07 3891.39,3578.94 3911.74,3574.83 3908.76,3556.73 3915.90,3555.79 3924.20,3604.09 3937.32,3602.33 3944.38,3618.50"/>
    <poly id="156242093" type="commercial" color="209,209,204" fill="1" layer="-3.00" shape="3828.79,3522.02 3869.32,3514.26 3877.40,3554.51 3925.63,3544.52 3927.99,3541.21 3885.65,3477.60 3874.77,3470.52 3822.30,3478.32 3696.08,3494.57 3705.24,3551.53 3794.18,3527.17 3800.63,3527.79 3828.79,3522.02"/>
    <poly id="156242094" type="residential" color="235,235,227" fill="1" layer="-3.00" shape="3986.73,3619.90 4012.75,3674.20 3835.53,3705.27 3826.00,3649.42 3986.73,3619.90"/>
    <poly id="156242097" type="commercial" color="209,209,204" fill="1" layer="-3.00" shape="3902.77,3625.07 3823.81,3638.20 3810.46,3574.84 3908.76,3556.73 3911.74,3574.83 3891.39,3578.94 3902.77,3625.07"/>
    <poly id="156242098" type="residential" color="235,235,227" fill="1" layer="-3.00" shape="4039.32,3721.78 4023.22,3687.06 3839.63,3717.77 3847.50,3777.06 4019.04,3764.77 4011.24,3724.49 4039.32,3721.78"/>
    <poly id="156242099" type="residential" color="235,235,227" fill="1" layer="-3.00" shape="3705.24,3551.53 3794.18,3527.17 3800.63,3527.79 3828.79,3522.02 3869.32,3514.26 3877.40,3554.51 3808.16,3568.98 3662.14,3592.01 3443.87,3624.76 3438.22,3621.26 3430.87,3583.61 3605.82,3556.80 3705.24,3551.53"/>
    <poly id="156242731" type="residential" color="235,235,227" fill="1" layer="-3.00" shape="3533.79,3660.63 3538.80,3701.31 3585.71,3694.91 3579.87,3653.47 3620.50,3644.46 3659.09,3641.91 3652.35,3603.48 3445.51,3634.41 3441.42,3638.48 3446.28,3719.76 3447.44,3750.26 3487.43,3748.20 3481.14,3667.75 3533.79,3660.63"/>
    <poly id="156242732" type="residential" color="235,235,227" fill="1" layer="-3.00" shape="3579.87,3653.47 3585.71,3694.91 3664.98,3685.17 3663.65,3672.87 3625.31,3680.47 3620.50,3644.46 3579.87,3653.47"/>
    <poly id="156242733" type="residential" color="235,235,227" fill="1" layer="-3.00" shape="3614.69,3749.09 3619.06,3785.87 3634.95,3784.19 3676.34,3782.03 3671.67,3743.39 3614.69,3749.09"/>
    <poly id="156242735" type="residential" color="235,235,227" fill="1" layer="-3.00" shape="3639.76,3827.11 3634.95,3784.19 3619.06,3785.87 3595.78,3793.65 3600.16,3826.75 3639.76,3827.11"/>
    <poly id="156242740" type="residential" color="235,235,227" fill="1" layer="-3.00" shape="3585.42,3705.35 3665.17,3696.53 3671.67,3743.39 3614.69,3749.09 3619.06,3785.87 3595.78,3793.65 3585.42,3705.35"/>
    <poly id="156244245" type="amenity" color="237,199,199" fill="1" layer="-1.00" shape="3766.53,3674.98 3729.78,3679.84 3722.86,3646.42 3760.62,3641.35 3766.53,3674.98"/>
    <poly id="156244254" type="residential" color="235,235,227" fill="1" layer="-3.00" shape="3667.01,3597.24 3707.33,3595.89 3733.44,3743.03 3685.72,3747.59 3667.01,3597.24"/>
    <poly id="156244255" type="residential" color="235,235,227" fill="1" layer="-3.00" shape="3812.62,3668.14 3766.53,3674.98 3729.78,3679.84 3749.17,3786.77 3831.49,3778.60 3812.62,3668.14"/>
    <poly id="156244256" type="residential" color="235,235,227" fill="1" layer="-3.00" shape="3634.95,3784.19 3639.76,3827.11 3678.44,3827.47 3682.73,3823.94 3676.34,3782.03 3634.95,3784.19"/>
    <poly id="156244259" type="commercial" color="209,209,204" fill="1" layer="-3.00" shape="3413.99,3536.19 3411.10,3534.44 3342.80,3543.54 3338.94,3548.43 3352.82,3607.50 3380.90,3601.37 3377.45,3578.16 3418.34,3570.52 3413.99,3536.19"/>
    <poly id="156244261" type="residential" color="235,235,227" fill="1" layer="-3.00" shape="3722.86,3646.42 3714.02,3590.92 3764.50,3582.25 3769.38,3619.50 3757.76,3625.09 3760.62,3641.35 3722.86,3646.42"/>
    <poly id="156244263" type="commercial" color="209,209,204" fill="1" layer="-3.00" shape="3764.50,3582.25 3769.38,3619.50 3757.76,3625.09 3760.62,3641.35 3766.53,3674.98 3812.62,3668.14 3801.13,3585.48 3800.70,3576.68 3764.50,3582.25"/>
    <poly id="156248603" type="residential" color="235,235,227" fill="1" layer="-3.00" shape="3286.56,3907.91 3285.70,3929.29 3285.72,3937.31 3209.63,3937.63 3211.07,3873.23 3244.12,3870.00 3248.73,3845.22 3262.60,3845.56 3261.35,3852.19 3282.03,3851.86 3282.26,3864.49 3282.39,3870.57 3275.80,3862.75 3262.21,3863.03 3263.50,3903.56 3286.56,3907.91"/>
    <poly id="156248607" type="residential" color="235,235,227" fill="1" layer="-3.00" shape="3374.67,3769.63 3267.96,3763.50 3266.16,3820.96 3265.31,3828.30 3373.27,3834.16 3374.67,3769.63"/>
    <poly id="156248608" type="residential" color="235,235,227" fill="1" layer="-3.00" shape="3216.14,3687.80 3214.84,3746.74 3218.48,3750.84 3370.45,3755.60 3372.65,3753.21 3371.07,3701.04 3365.55,3697.47 3332.46,3701.00 3295.06,3699.91 3221.76,3686.30 3216.14,3687.80"/>
    <poly id="156248612" type="residential" color="235,235,227" fill="1" layer="-3.00" shape="3370.35,3888.71 3278.31,3886.95 3275.80,3862.75 3262.21,3863.03 3263.50,3903.56 3286.56,3907.91 3285.70,3929.29 3368.66,3924.83 3370.35,3888.71"/>
    <poly id="156248614" type="residential" color="235,235,227" fill="1" layer="-3.00" shape="3263.90,3837.29 3262.60,3845.56 3261.35,3852.19 3282.03,3851.86 3282.26,3864.49 3282.39,3870.57 3282.65,3885.82 3370.40,3887.58 3372.13,3845.28 3263.90,3837.29"/>
    <poly id="156250603" type="amenity" color="237,199,199" fill="1" layer="-1.00" shape="3795.24,4320.68 3806.72,4357.52 3773.23,4368.53 3760.95,4329.51 3795.24,4320.68"/>
    <poly id="156250605" type="amenity" color="237,199,199" fill="1" layer="-1.00" shape="3113.42,3552.91 3113.25,3562.03 3049.82,3569.95 3032.91,3518.65 3038.29,3517.45 3034.00,3480.39 3038.12,3479.67 3064.11,3475.15 3072.55,3518.11 3080.11,3556.78 3113.42,3552.91"/>
    <poly id="156250605#1" type="landuse" color="194,194,130" fill="1" layer="-3.00" shape="3113.42,3552.91 3113.25,3562.03 3049.82,3569.95 3032.91,3518.65 3038.29,3517.45 3034.00,3480.39 3038.12,3479.67 3064.11,3475.15 3072.55,3518.11 3080.11,3556.78 3113.42,3552.91"/>
    <poly id="156250608" type="amenity" color="237,199,199" fill="1" layer="-1.00" shape="3844.40,4213.10 3848.71,4185.52 3844.30,4179.39 3818.33,4174.21 3813.87,4209.02 3844.40,4213.10"/>
    <poly id="156250610" type="commercial" color="209,209,204" fill="1" layer="-3.00" shape="3214.78,3761.13 3214.67,3819.41 3266.16,3820.96 3267.96,3763.50 3214.78,3761.13"/>
    <poly id="156250615" type="amenity" color="237,199,199" fill="1" layer="-1.00" shape="3111.33,3511.24 3113.42,3552.91 3080.11,3556.78 3072.55,3518.11 3111.33,3511.24"/>
    <poly id="156250617" type="commercial" color="209,209,204" fill="1" layer="-3.00" shape="3985.09,4227.74 3983.68,4295.81 3968.46,4299.78 3870.37,4333.99 3857.27,4294.78 3857.35,4280.64 3897.26,4281.32 3923.27,4238.22 3937.63,4238.18 3938.80,4227.27 3985.09,4227.74"/>
    <poly id="156250623" type="residential" color="235,235,227" fill="1" layer="-3.00" shape="3625.43,4176.97 3625.13,4060.35 3637.83,4046.49 3631.75,3947.42 3640.52,3942.92 3844.34,3922.06 3849.55,3931.01 3859.45,4040.80 3851.43,4160.96 3845.06,4167.33 3644.00,4183.78 3625.43,4176.97"/>
    <poly id="156250625" type="residential" color="235,235,227" fill="1" layer="-3.00" shape="3418.34,3570.52 3377.45,3578.16 3380.90,3601.37 3352.82,3607.50 3360.34,3643.08 3388.67,3639.13 3418.87,3753.74 3447.44,3750.26 3446.28,3719.76 3439.35,3720.41 3418.34,3570.52"/>
    <poly id="156250628" type="commercial" color="209,209,204" fill="1" layer="-3.00" shape="4057.48,4278.54 4058.32,4181.26 4026.62,4180.93 3867.02,4179.29 3857.35,4280.64 3897.26,4281.32 3923.27,4238.22 3937.63,4238.18 3938.80,4227.27 3985.09,4227.74 4024.23,4231.43 4029.54,4286.29 4057.48,4278.54"/>
    <poly id="156250629" type="commercial" color="209,209,204" fill="1" layer="-3.00" shape="3206.75,3819.34 3206.87,3813.15 3146.64,3813.05 3146.23,3818.83 3206.75,3819.34"/>
    <poly id="156250631" type="commercial" color="209,209,204" fill="1" layer="-3.00" shape="3306.88,3543.79 3312.68,3579.33 3226.58,3595.88 3221.53,3556.87 3306.88,3543.79"/>
    <poly id="156250634" type="commercial" color="209,209,204" fill="1" layer="-3.00" shape="4024.23,4231.43 3985.09,4227.74 3983.68,4295.81 4029.54,4286.29 4024.23,4231.43"/>
    <poly id="156250639" type="commercial" color="209,209,204" fill="1" layer="-3.00" shape="3752.78,4349.62 3760.09,4373.80 3693.29,4398.67 3686.40,4368.45 3752.78,4349.62"/>
    <poly id="156250640" type="residential" color="235,235,227" fill="1" layer="-3.00" shape="3636.66,4191.42 3637.24,4202.20 3686.40,4368.45 3752.78,4349.62 3709.22,4183.64 3636.66,4191.42"/>
    <poly id="156250641" type="residential" color="235,235,227" fill="1" layer="-3.00" shape="3212.08,3668.50 3209.19,3642.65 3208.51,3634.41 3339.52,3618.85 3342.64,3625.80 3354.79,3681.52 3351.84,3685.79 3303.88,3690.14 3216.04,3673.16 3212.08,3668.50"/>
    <poly id="156250646" type="commercial" color="209,209,204" fill="1" layer="-3.00" shape="3388.67,3639.13 3360.34,3643.08 3369.42,3684.79 3383.01,3699.89 3381.54,3757.44 3418.87,3753.74 3388.67,3639.13"/>
    <poly id="156250649" type="residential" color="235,235,227" fill="1" layer="-3.00" shape="3196.28,3716.49 3202.76,3708.34 3189.08,3569.04 3184.28,3564.01 3101.62,3573.50 3108.80,3710.02 3196.28,3716.49"/>
    <poly id="156250651" type="residential" color="235,235,227" fill="1" layer="-3.00" shape="3855.19,3788.96 3849.86,3795.15 3863.31,3904.61 3867.64,3907.94 3999.70,3898.73 3998.36,3862.09 3997.66,3815.91 3995.80,3773.48 3855.19,3788.96"/>
    <poly id="156250653" type="commercial" color="209,209,204" fill="1" layer="-3.00" shape="3844.40,4213.10 3839.74,4283.97 3854.02,4341.97 3806.72,4357.52 3795.24,4320.68 3783.50,4264.02 3785.20,4210.50 3813.87,4209.02 3844.40,4213.10"/>
    <poly id="156250654" type="residential" color="235,235,227" fill="1" layer="-3.00" shape="3339.54,3607.81 3335.99,3612.66 3210.24,3627.44 3202.80,3624.68 3194.34,3568.21 3194.07,3558.44 3221.53,3556.87 3226.58,3595.88 3312.68,3579.33 3306.88,3543.79 3324.89,3542.13 3327.92,3549.09 3339.54,3607.81"/>
    <poly id="156250657" type="residential" color="235,235,227" fill="1" layer="-3.00" shape="3203.16,3805.73 3202.73,3725.64 3105.97,3720.31 3106.22,3738.34 3142.54,3740.23 3142.58,3753.51 3169.51,3753.43 3169.46,3805.77 3203.16,3805.73"/>
    <poly id="156250663" type="residential" color="235,235,227" fill="1" layer="-3.00" shape="3818.33,4174.21 3722.45,4184.40 3726.84,4198.96 3749.66,4286.32 3754.33,4304.21 3760.95,4329.51 3795.24,4320.68 3783.50,4264.02 3785.20,4210.50 3813.87,4209.02 3818.33,4174.21"/>
    <poly id="156250664" type="residential" color="235,235,227" fill="1" layer="-3.00" shape="3831.92,3784.01 3836.64,3796.32 3850.51,3906.19 3845.17,3911.24 3631.79,3938.84 3622.44,3835.24 3688.86,3834.78 3697.08,3834.86 3692.53,3799.81 3700.74,3798.61 3763.63,3791.02 3831.92,3784.01"/>
    <poly id="156251655" type="commercial" color="209,209,204" fill="1" layer="-3.00" shape="3733.44,3743.03 3685.72,3747.59 3693.83,3791.67 3740.87,3786.89 3733.44,3743.03"/>
    <poly id="156251656" type="residential" color="235,235,227" fill="1" layer="-3.00" shape="3625.31,3680.47 3620.50,3644.46 3659.09,3641.91 3663.65,3672.87 3625.31,3680.47"/>
    <poly id="156252945" type="residential" color="235,235,227" fill="1" layer="-3.00" shape="3377.95,3928.02 3285.72,3937.31 3209.63,3937.63 3205.61,3989.33 3323.97,3983.49 3333.93,4218.21 3532.22,4198.57 3538.57,4120.78 3617.70,4123.99 3615.57,4070.83 3605.25,4061.01 3519.50,4054.66 3519.89,4048.20 3522.19,3967.45 3518.31,3964.47 3419.09,3962.74 3418.83,3955.16 3377.95,3928.02"/>
    <poly id="156252946" type="residential" color="235,235,227" fill="1" layer="-3.00" shape="3423.42,3909.34 3381.66,3910.19 3377.95,3928.02 3418.83,3955.16 3559.52,3956.15 3562.43,3955.01 3561.76,3929.89 3569.66,3930.15 3570.67,3957.45 3565.78,3963.66 3533.01,3963.10 3529.98,3965.02 3529.59,4046.27 3535.94,4049.70 3617.17,4049.76 3621.99,4047.46 3626.09,4040.09 3623.36,3949.02 3631.79,3938.84 3622.44,3835.24 3562.96,3842.57 3559.32,3852.96 3566.26,3907.33 3556.86,3908.10 3442.65,3921.07 3441.82,3908.97 3423.42,3909.34"/>
    <poly id="156252948" type="commercial" color="209,209,204" fill="1" layer="-3.00" shape="3912.60,3915.79 3868.88,3919.57 3863.82,3926.31 3871.44,4021.88 3880.48,4026.35 3920.25,4021.74 3912.60,3915.79"/>
    <poly id="156252950" type="residential" color="235,235,227" fill="1" layer="-3.00" shape="3879.17,4038.20 3875.03,4042.71 3867.02,4165.76 4015.46,4167.70 4016.03,4088.80 4136.32,4082.70 4129.54,4014.33 3879.17,4038.20"/>
    <poly id="156252951" type="residential" color="235,235,227" fill="1" layer="-3.00" shape="3912.60,3915.79 3920.25,4021.74 4053.12,4012.67 4128.26,4005.20 4093.57,3869.00 3998.36,3862.09 3999.70,3898.73 4000.62,3911.04 3912.60,3915.79"/>
    <poly id="157915141" type="landuse" color="194,194,130" fill="1" layer="-3.00" shape="3011.94,4394.30 2989.62,4397.90 2947.91,4201.09 2966.33,4197.16 3011.94,4394.30"/>
    <poly id="157989474" type="amenity" color="237,199,199" fill="1" layer="-1.00" shape="2774.91,3585.18 2746.94,3596.13 2728.17,3562.79 2745.47,3552.67 2769.53,3570.35 2774.91,3585.18"/>
    <poly id="157989478" type="commercial" color="209,209,204" fill="1" layer="-3.00" shape="2721.17,4038.87 2727.30,4080.15 2784.53,4071.12 2777.32,4030.52 2721.17,4038.87"/>
    <poly id="157989504" type="commercial" color="209,209,204" fill="1" layer="-3.00" shape="2136.27,4237.24 2129.81,4218.97 2146.28,4193.21 2209.03,4217.41 2221.78,4202.79 2254.83,4191.83 2252.64,4172.48 2278.77,4167.90 2282.84,4189.62 2229.78,4288.91 2136.27,4237.24"/>
    <poly id="157989507" type="commercial" color="209,209,204" fill="1" layer="-3.00" shape="2877.85,3726.24 2889.04,3820.18 3010.60,3812.14 3017.19,3784.28 3057.73,3784.43 3058.47,3761.90 2992.50,3759.04 2986.49,3772.56 2964.30,3773.26 2966.07,3728.52 2916.71,3722.24 2877.85,3726.24"/>
    <poly id="157989509" type="commercial" color="209,209,204" fill="1" layer="-3.00" shape="2785.38,3606.60 2816.85,3605.18 2833.64,3690.48 2846.68,3760.70 2849.40,3772.47 2890.81,3987.96 2887.88,3992.20 2831.37,4003.24 2814.12,3935.41 2845.55,3929.52 2817.72,3807.41 2804.81,3665.87 2789.73,3620.15 2737.73,3638.82 2732.87,3621.87 2785.38,3606.60"/>
    <poly id="157989511" type="residential" color="235,235,227" fill="1" layer="-3.00" shape="2851.73,4013.21 2827.81,4018.11 2855.16,4153.20 2861.37,4270.06 2831.76,4540.76 2808.19,4596.23 2812.29,4620.37 2849.51,4679.06 2881.60,4708.12 2891.06,4714.35 2864.63,4652.41 2845.57,4627.38 2824.01,4596.19 2844.93,4566.01 2862.24,4488.72 2964.31,4479.55 2961.08,4461.25 2869.02,4475.09 2884.35,4361.01 2891.75,4302.81 2895.34,4275.67 2851.73,4013.21"/>
    <poly id="157989512" type="commercial" color="209,209,204" fill="1" layer="-3.00" shape="2545.18,4471.53 2607.16,4506.87 2594.78,4378.36 2545.18,4471.53"/>
    <poly id="157989513" type="commercial" color="209,209,204" fill="1" layer="-3.00" shape="2365.44,4368.78 2318.15,4342.15 2341.41,4294.12 2365.39,4307.28 2387.35,4319.33 2365.44,4368.78"/>
    <poly id="157989514" type="commercial" color="209,209,204" fill="1" layer="-3.00" shape="1873.12,4169.05 1900.20,4142.36 1980.68,4186.35 1941.28,4255.07 1873.12,4169.05"/>
    <poly id="157989515" type="commercial" color="209,209,204" fill="1" layer="-3.00" shape="2453.07,4535.68 2468.04,4543.59 2526.58,4527.33 2569.32,4515.46 2488.63,4471.96 2453.07,4535.68"/>
    <poly id="157989516" type="commercial" color="209,209,204" fill="1" layer="-3.00" shape="2950.89,4294.52 2891.75,4302.81 2884.35,4361.01 2964.69,4353.36 2950.89,4294.52"/>
    <poly id="157989517" type="commercial" color="209,209,204" fill="1" layer="-3.00" shape="2372.41,4377.24 2418.89,4402.81 2465.60,4323.15 2416.98,4296.54 2372.41,4377.24"/>
    <poly id="157989518" type="commercial" color="209,209,204" fill="1" layer="-3.00" shape="2525.64,3692.21 2533.90,3680.57 2641.71,3653.63 2662.66,3721.80 2532.97,3745.42 2525.64,3692.21"/>
    <poly id="157989520" type="commercial" color="209,209,204" fill="1" layer="-3.00" shape="2884.35,4361.01 2964.69,4353.36 2983.65,4458.32 2961.08,4461.25 2869.02,4475.09 2884.35,4361.01"/>
    <poly id="157989522" type="commercial" color="209,209,204" fill="1" layer="-3.00" shape="2864.72,3677.61 2874.59,3722.52 2914.98,3713.52 2938.19,3714.25 2931.03,3672.22 2864.72,3677.61"/>
    <poly id="157989523" type="commercial" color="209,209,204" fill="1" layer="-3.00" shape="2891.75,4302.81 2895.34,4275.67 2851.73,4013.21 2893.17,4006.09 2950.89,4294.52 2891.75,4302.81"/>
    <poly id="157989524" type="residential" color="235,235,227" fill="1" layer="-3.00" shape="3271.84,4373.18 3321.28,4382.02 3322.33,4358.03 3344.20,4352.72 3335.60,4249.30 3263.95,4257.37 3271.84,4373.18"/>
    <poly id="157989525" type="commercial" color="209,209,204" fill="1" layer="-3.00" shape="2427.92,4406.25 2532.58,4464.41 2586.25,4372.04 2528.07,4339.98 2510.05,4370.01 2464.31,4341.66 2427.92,4406.25"/>
    <poly id="157989526" type="residential" color="235,235,227" fill="1" layer="-3.00" shape="2684.54,3571.82 2702.75,3606.63 2647.34,3624.41 2584.41,3520.02 2556.60,3428.26 2604.78,3410.09 2684.54,3571.82"/>
    <poly id="157989528" type="residential" color="235,235,227" fill="1" layer="-3.00" shape="2966.07,3728.52 2964.30,3773.26 2986.49,3772.56 2992.50,3759.04 3058.47,3761.90 3057.87,3717.36 3004.83,3722.00 2966.07,3728.52"/>
    <poly id="157989529" type="commercial" color="209,209,204" fill="1" layer="-3.00" shape="2964.31,4479.55 2961.08,4461.25 2983.65,4458.32 3004.82,4492.86 3112.68,4611.36 3118.24,4638.50 3105.14,4639.21 2964.31,4479.55"/>
    <poly id="157989530" type="commercial" color="209,209,204" fill="1" layer="-3.00" shape="2323.48,3710.40 2334.68,3778.11 2463.96,3756.50 2472.80,3812.70 2529.36,3803.53 2510.09,3700.15 2461.27,3689.99 2323.48,3710.40"/>
    <poly id="157989531" type="commercial" color="209,209,204" fill="1" layer="-3.00" shape="2157.08,4150.77 2106.33,4128.93 2095.20,4150.16 2030.27,4115.64 2002.95,4165.01 2096.46,4216.68 2118.58,4211.32 2157.08,4150.77"/>
    <poly id="157989533" type="residential" color="235,235,227" fill="1" layer="-3.00" shape="2789.73,3620.15 2737.73,3638.82 2743.88,3666.70 2778.18,3784.76 2814.12,3935.41 2845.55,3929.52 2817.72,3807.41 2804.81,3665.87 2789.73,3620.15"/>
    <poly id="157989534" type="commercial" color="209,209,204" fill="1" layer="-3.00" shape="2024.94,4356.77 2015.91,4363.16 1968.79,4372.31 1938.73,4267.24 1952.24,4261.41 1988.61,4191.58 2069.86,4237.44 2083.14,4262.51 2063.60,4294.16 2051.39,4313.93 2024.94,4356.77"/>
    <poly id="157989535" type="commercial" color="209,209,204" fill="1" layer="-3.00" shape="2623.13,3618.44 2609.97,3630.85 2519.11,3652.48 2503.25,3646.54 2454.30,3549.22 2510.83,3529.93 2568.88,3516.27 2587.11,3557.82 2623.13,3618.44"/>
    <poly id="157989536" type="commercial" color="209,209,204" fill="1" layer="-3.00" shape="2937.40,3498.10 2928.48,3453.92 2865.83,3466.50 2823.18,3477.50 2848.08,3597.49 2853.15,3601.45 2907.01,3593.33 2900.17,3535.31 2897.68,3505.37 2937.40,3498.10"/>
    <poly id="157989547" type="amenity" color="237,199,199" fill="1" layer="-1.00" shape="3017.19,3784.28 3010.60,3812.14 3052.25,3809.66 3057.73,3784.43 3017.19,3784.28"/>
    <poly id="178105900" type="water" color="181,209,209" fill="0" layer="-4.00" shape="-6155.43,-221.56 -6124.29,-196.85 -6054.79,-125.57 -5973.27,-75.12 -5807.92,-100.30 -5756.23,-108.18 -5668.61,-180.30 -5584.49,-383.69 -5483.13,-483.56 -4990.04,-563.72 -4716.38,-530.40 -4623.19,-441.23 -4405.25,-78.76 -4329.86,201.93 -4292.18,340.54 -4226.46,516.06 -4207.26,696.35 -4211.19,922.96 -4212.52,954.38 -4215.52,1024.72 -4191.89,1135.62 -4126.44,1227.90 -3981.94,1296.80 -3856.07,1365.76 -3714.32,1424.28 -3450.72,1773.57 -3303.50,1971.39 -3223.05,2073.09 -2886.81,2372.13 -2606.48,2461.88 -2256.61,2456.15 -1332.94,2212.88 -1074.99,2001.27 -1071.35,1988.34 -1044.57,1893.22 -1038.96,1695.02 -980.24,1462.40 -682.42,1246.91 -164.72,1082.04 174.39,1019.94 259.83,1023.42 325.16,1053.31 643.57,1318.50 704.45,1344.34 821.87,1340.28 860.27,1315.15 962.09,1167.60 1034.34,1091.57 1150.34,975.61 1406.31,974.84 1532.16,1039.20 1654.13,1362.53 1758.46,1586.46 1902.23,1847.34 2029.68,2073.90 2113.64,2140.70 2268.51,2183.01 2433.68,2155.56 2563.71,2062.70 2823.57,1812.22 2961.83,1624.51 3003.48,1541.15 3058.97,1420.76 3113.49,1319.57 3160.41,1101.38 3351.13,826.22 3853.95,879.90 4075.65,796.81 4306.86,792.75 4712.46,928.37 4968.34,977.09 5144.65,955.61 5411.80,828.93 5887.46,737.74 5903.91,734.59 6212.27,650.18"/>
    <poly id="183882994" type="amenity" color="237,199,199" fill="1" layer="-1.00" shape="644.76,3183.80 617.44,3186.71 649.59,3290.93 672.30,3286.60 644.76,3183.80"/>
    <poly id="186080196" type="commercial" color="209,209,204" fill="1" layer="-3.00" shape="3025.72,1833.27 2949.08,1774.61 2944.30,1763.16 3055.80,1632.87 3092.90,1747.27 3080.20,1754.69 3050.29,1789.74 3025.72,1833.27"/>
    <poly id="186080196#1" type="leisure" color="207,245,201" fill="1" layer="-2.00" shape="3025.72,1833.27 2949.08,1774.61 2944.30,1763.16 3055.80,1632.87 3092.90,1747.27 3080.20,1754.69 3050.29,1789.74 3025.72,1833.27"/>
    <poly id="188445646" type="amenity" color="237,199,199" fill="1" layer="-1.00" shape="3932.30,3255.50 3931.81,3227.39 3968.62,3223.51 3970.46,3252.16 3932.30,3255.50"/>
    <poly id="209412390" type="building" color="255,230,230" fill="1" layer="-1.00" shape="3849.21,2850.57 3861.68,2849.29 3855.17,2786.82 3842.69,2788.11 3849.21,2850.57"/>
    <poly id="209412391" type="building" color="255,230,230" fill="1" layer="-1.00" shape="3851.64,2864.67 3864.27,2863.73 3865.68,2882.44 3885.14,2880.99 3886.07,2893.38 3866.61,2894.82 3867.68,2909.08 3855.05,2910.01 3851.64,2864.67"/>
    <poly id="209412392" type="landuse" color="194,194,130" fill="1" layer="-3.00" shape="3935.56,3194.12 3935.46,3220.14 3999.64,3212.15 3994.53,3187.50 3935.56,3194.12"/>
    <poly id="209412393" type="commercial" color="209,209,204" fill="1" layer="-3.00" shape="3899.86,3096.54 3887.75,2968.61 3904.43,2967.64 3913.76,3095.28 3899.86,3096.54"/>
    <poly id="209412395" type="residential" color="235,235,227" fill="1" layer="-3.00" shape="3910.95,3226.10 3905.68,3326.77 3828.15,3319.63 3827.61,3235.22 3827.58,3230.33 3910.95,3226.10"/>
    <poly id="209412397" type="commercial" color="209,209,204" fill="1" layer="-3.00" shape="3923.35,2960.68 3920.82,2940.74 3973.02,2940.28 3973.38,2958.07 3923.35,2960.68"/>
    <poly id="209412398" type="landuse" color="194,194,130" fill="1" layer="-3.00" shape="3934.87,3095.98 3939.19,3098.11 3987.67,3092.14 3982.89,3045.82 3930.71,3049.96 3934.87,3095.98"/>
    <poly id="209412399" type="residential" color="235,235,227" fill="1" layer="-3.00" shape="3932.30,3255.50 3933.70,3296.61 4054.11,3284.90 4052.76,3244.10 3970.46,3252.16 3932.30,3255.50"/>
    <poly id="209412400" type="commercial" color="209,209,204" fill="1" layer="-3.00" shape="3935.56,3194.12 3994.53,3187.50 3966.81,3107.80 3936.96,3110.86 3935.02,3114.64 3935.56,3194.12"/>
    <poly id="209412401" type="landuse" color="194,194,130" fill="1" layer="-3.00" shape="3827.58,3230.33 3824.74,3188.32 3839.38,3188.34 3839.41,3197.53 3910.45,3198.24 3910.95,3226.10 3827.58,3230.33"/>
    <poly id="209412402" type="landuse" color="194,194,130" fill="1" layer="-3.00" shape="3824.74,3188.32 3820.03,3118.72 3912.36,3113.54 3915.76,3116.60 3911.66,3188.42 3839.38,3188.34 3824.74,3188.32"/>
    <poly id="209412405" type="amenity" color="237,199,199" fill="1" layer="-1.00" shape="3930.71,3049.96 3923.35,2960.68 3973.38,2958.07 3982.89,3045.82 3930.71,3049.96"/>
    <poly id="209413529" type="commercial" color="209,209,204" fill="1" layer="-3.00" shape="3902.05,3451.71 3901.97,3461.04 3904.61,3468.63 3942.85,3514.08 3946.47,3516.45 3970.95,3527.13 3958.80,3438.30 3956.28,3326.78 3928.55,3325.99 3923.73,3397.84 3918.99,3418.68 3910.31,3436.71 3902.05,3451.71"/>
    <poly id="209413534" type="commercial" color="209,209,204" fill="1" layer="-3.00" shape="4058.21,3609.21 4015.44,3619.10 3979.70,3567.13 3977.05,3557.81 3979.21,3552.82 3988.59,3547.79 4057.81,3545.20 4058.21,3609.21"/>
    <poly id="209497491" type="commercial" color="209,209,204" fill="1" layer="-3.00" shape="3876.22,2900.54 3877.62,2929.61 3898.05,2928.83 3899.88,2925.44 3897.41,2898.74 3876.22,2900.54"/>
    <poly id="209497492" type="commercial" color="209,209,204" fill="1" layer="-3.00" shape="3874.62,2874.29 3894.92,2872.92 3883.56,2746.22 3880.71,2742.77 3844.46,2745.26 3846.43,2771.42 3864.05,2769.73 3874.62,2874.29"/>