<?xml version="1.0" encoding="UTF-8"?>
<!-- generated on 2018-03-26 23:18:14.002613 by $Id$
  options: -n village.net.xml -r village.rou.xml -e 20 -l
-->
<routes xmlns:xsi="http://www.w3.org/2001/XMLSchema-instance" xsi:noNamespaceSchemaLocation="http://sumo.dlr.de/xsd/routes_file.xsd">
    <trip id="0" depart="0.00" from="366792262#0" to="-208968224#1"/>
    <trip id="1" depart="1.00" from="-208968228" to="366792262#5"/>
    <trip id="2" depart="2.00" from="208968224#3" to="-366792262#0"/>
    <trip id="3" depart="3.00" from="-208968224#4" to="-208968228"/>
    <trip id="4" depart="4.00" from="-208973973" to="-208968228"/>
    <trip id="5" depart="5.00" from="208968224#0" to="208973973"/>
    <trip id="6" depart="6.00" from="208968224#1" to="-366792262#0"/>
    <trip id="7" depart="7.00" from="-371674439" to="-208968224#0"/>
    <trip id="8" depart="8.00" from="366792262#3" to="-208968224#0"/>
    <trip id="9" depart="9.00" from="208968224#0" to="-366792262#0"/>
    <trip id="10" depart="10.00" from="-208973973" to="208968231"/>
    <trip id="11" depart="11.00" from="-366792262#5" to="371674439"/>
    <trip id="12" depart="12.00" from="-366792262#5" to="-208968224#0"/>
    <trip id="13" depart="13.00" from="-208973973" to="208973973"/>
    <trip id="14" depart="14.00" from="-208973973" to="-366792262#0"/>
    <trip id="15" depart="15.00" from="-366792262#2" to="-208968224#0"/>
    <trip id="16" depart="16.00" from="366792262#0" to="-208968231"/>
    <trip id="17" depart="17.00" from="208968224#0" to="208973973"/>
    <trip id="18" depart="18.00" from="-208973973" to="-371382386"/>
    <trip id="19" depart="19.00" from="-208973973" to="-366792262#4"/>
</routes>
