<?xml version="1.0" encoding="UTF-8"?>

<!-- generated on 03/26/18 23:14:46 by SUMO polyconvert Version 0.32.0
<?xml version="1.0" encoding="UTF-8"?>

<configuration xmlns:xsi="http://www.w3.org/2001/XMLSchema-instance" xsi:noNamespaceSchemaLocation="http://sumo.dlr.de/xsd/polyconvertConfiguration.xsd">

    <input>
        <net-file value="village.net.xml"/>
        <osm-files value="village.osm"/>
        <type-file value="osmPolyconvert.typ.xml"/>
    </input>

    <output>
        <output-file value="village.poly.xml"/>
    </output>

    <processing>
        <poi-layer-offset value="5"/>
    </processing>

</configuration>
-->

<additional xmlns:xsi="http://www.w3.org/2001/XMLSchema-instance" xsi:noNamespaceSchemaLocation="http://sumo.dlr.de/xsd/additional_file.xsd">
    <location netOffset="-651650.12,-1196548.42" convBoundary="0.00,0.00,6197.66,5920.16" origBoundary="76.387334,10.821045,76.444022,10.874422" projParameter="+proj=utm +zone=43 +ellps=WGS84 +datum=WGS84 +units=m +no_defs"/>

    <poly id="208973975" type="amenity" color="237,199,199" fill="1" layer="-1.00" shape="2640.66,3228.93 2658.84,3291.95 2697.44,3284.95 2703.54,3327.71 2653.56,3341.61 2616.57,3352.22 2565.24,3367.27 2554.53,3323.09 2547.91,3298.58 2578.07,3256.61 2640.66,3228.93"/>
    <poly id="362437678" type="amenity" color="237,199,199" fill="1" layer="-1.00" shape="1719.81,3301.09 1727.33,3344.04 1763.50,3334.65 1753.22,3292.31 1719.81,3301.09"/>
    <poly id="362437678#1" type="building" color="255,230,230" fill="1" layer="-1.00" shape="1719.81,3301.09 1727.33,3344.04 1763.50,3334.65 1753.22,3292.31 1719.81,3301.09"/>
    <poly id="372785033" type="building" color="255,230,230" fill="1" layer="-1.00" shape="2591.25,3310.14 2633.54,3298.69 2630.65,3287.61 2588.67,3298.48 2591.25,3310.14"/>
    <poly id="372785034" type="building" color="255,230,230" fill="1" layer="-1.00" shape="2558.08,3316.99 2588.33,3308.09 2585.45,3297.01 2555.20,3306.48 2558.08,3316.99"/>
    <poly id="372785036" type="building" color="255,230,230" fill="1" layer="-1.00" shape="2586.04,3294.68 2595.74,3292.39 2585.35,3255.93 2578.59,3258.81 2576.51,3262.58 2586.04,3294.68"/>
    <poly id="372785037" type="building" color="255,230,230" fill="1" layer="-1.00" shape="2595.50,3280.15 2623.98,3271.55 2620.53,3257.84 2592.04,3266.73 2595.50,3280.15"/>
    <poly id="372785038" type="building" color="255,230,230" fill="1" layer="-1.00" shape="2635.88,3297.53 2656.15,3291.51 2653.27,3280.71 2633.00,3286.44 2635.88,3297.53"/>
    <poly id="372785042" type="building" color="255,230,230" fill="1" layer="-1.00" shape="2609.38,3256.91 2632.29,3249.15 2628.84,3237.48 2606.20,3246.99 2609.38,3256.91"/>
    <poly id="372785043" type="building" color="255,230,230" fill="1" layer="-1.00" shape="2641.55,3277.46 2650.95,3274.00 2639.70,3233.74 2630.30,3237.49 2641.55,3277.46"/>
    <poly id="372785044" type="amenity" color="237,199,199" fill="1" layer="-1.00" shape="2569.03,3360.74 2695.58,3324.32 2691.05,3290.21 2656.71,3296.75 2559.23,3322.81 2569.03,3360.74"/>
    <poly id="372785303" type="building" color="255,230,230" fill="1" layer="-1.00" shape="2559.93,3296.89 2575.21,3291.72 2570.00,3275.38 2558.20,3290.18 2559.93,3296.89"/>
    <poly id="372932988" type="water" color="181,209,209" fill="1" layer="-4.00" shape="1824.94,3868.83 1901.21,3863.37 1886.36,3775.89 1822.96,3790.75 1824.94,3868.83"/>
    <poly id="375753347" type="amenity" color="237,199,199" fill="1" layer="-1.00" shape="2197.02,3421.84 2231.60,3427.24 2283.90,3405.34 2267.67,3364.47 2227.18,3367.78 2196.10,3368.22 2197.02,3421.84"/>
    <poly id="375753348" type="building" color="255,230,230" fill="1" layer="-1.00" shape="2254.48,3415.10 2264.18,3410.78 2257.82,3390.07 2248.42,3394.10 2249.87,3398.77 2255.44,3396.46 2258.62,3407.55 2252.75,3409.85 2254.48,3415.10"/>
    <poly id="375753349" type="building" color="255,230,230" fill="1" layer="-1.00" shape="2240.09,3420.86 2249.19,3417.70 2243.11,3400.20 2234.29,3404.24 2240.09,3420.86"/>
    <poly id="375753350" type="building" color="255,230,230" fill="1" layer="-1.00" shape="2205.20,3418.96 2217.80,3419.60 2223.71,3410.30 2219.61,3408.82 2215.77,3415.22 2205.80,3413.72 2205.20,3418.96"/>
    <poly id="375753351" type="building" color="255,230,230" fill="1" layer="-1.00" shape="2268.03,3403.81 2273.31,3401.50 2265.78,3380.19 2260.20,3382.79 2268.03,3403.81"/>
    <poly id="378249400" type="water" color="181,209,209" fill="1" layer="-4.00" shape="2581.64,2943.76 2605.14,2937.45 2587.81,2877.36 2564.92,2881.91 2567.65,2927.38 2581.64,2943.76"/>
    <poly id="378311554" type="water" color="181,209,209" fill="1" layer="-4.00" shape="2179.61,2925.90 2188.36,2938.19 2227.05,2939.53 2227.92,2880.09 2206.21,2881.16 2196.80,2886.94 2197.35,2893.36 2188.54,2899.14 2176.83,2893.26 2179.61,2925.90"/>
    <poi id="3663364582" type="amenity" color="237,199,199" layer="4.00" x="2621.43" y="3296.70"/>
    <poi id="3664715506" type="amenity" color="237,199,199" layer="4.00" x="1718.42" y="3280.80"/>
</additional>
