<?xml version="1.0" encoding="UTF-8"?>

<!-- generated on 03/26/18 23:11:26 by SUMO netconvert Version 0.32.0
<?xml version="1.0" encoding="UTF-8"?>

<configuration xmlns:xsi="http://www.w3.org/2001/XMLSchema-instance" xsi:noNamespaceSchemaLocation="http://sumo.dlr.de/xsd/netconvertConfiguration.xsd">

    <input>
        <osm-files value="village.osm"/>
    </input>

    <output>
        <output-file value="village.net.xml"/>
    </output>

    <projection>
        <proj.utm value="true"/>
    </projection>

</configuration>
-->

<net version="0.27" xmlns:xsi="http://www.w3.org/2001/XMLSchema-instance" xsi:noNamespaceSchemaLocation="http://sumo.dlr.de/xsd/net_file.xsd">

    <location netOffset="-651650.12,-1196548.42" convBoundary="0.00,0.00,6197.66,5920.15" origBoundary="76.387334,10.821045,76.444022,10.874422" projParameter="+proj=utm +zone=43 +ellps=WGS84 +datum=WGS84 +units=m +no_defs"/>

    <type id="highway.bridleway" priority="1" numLanes="1" speed="2.78" allow="pedestrian" oneway="1" width="2.00"/>
    <type id="highway.bus_guideway" priority="1" numLanes="1" speed="8.33" allow="bus" oneway="1"/>
    <type id="highway.cycleway" priority="1" numLanes="1" speed="5.56" allow="bicycle" oneway="0" width="1.00"/>
    <type id="highway.footway" priority="1" numLanes="1" speed="2.78" allow="pedestrian" oneway="1" width="2.00"/>
    <type id="highway.ford" priority="1" numLanes="1" speed="2.78" allow="army" oneway="0"/>
    <type id="highway.living_street" priority="3" numLanes="1" speed="2.78" disallow="tram rail_urban rail rail_electric ship" oneway="0"/>
    <type id="highway.motorway" priority="13" numLanes="2" speed="44.44" allow="private emergency authority army vip passenger hov taxi bus coach delivery truck trailer motorcycle evehicle custom1 custom2" oneway="1"/>
    <type id="highway.motorway_link" priority="12" numLanes="1" speed="22.22" allow="private emergency authority army vip passenger hov taxi bus coach delivery truck trailer motorcycle evehicle custom1 custom2" oneway="1"/>
    <type id="highway.path" priority="1" numLanes="1" speed="2.78" allow="bicycle pedestrian" oneway="1" width="2.00"/>
    <type id="highway.pedestrian" priority="1" numLanes="1" speed="2.78" allow="pedestrian" oneway="1" width="2.00"/>
    <type id="highway.primary" priority="9" numLanes="2" speed="27.78" disallow="tram rail_urban rail rail_electric ship" oneway="0"/>
    <type id="highway.primary_link" priority="8" numLanes="1" speed="22.22" disallow="tram rail_urban rail rail_electric ship" oneway="0"/>
    <type id="highway.raceway" priority="14" numLanes="2" speed="83.33" allow="vip" oneway="0"/>
    <type id="highway.residential" priority="4" numLanes="1" speed="13.89" disallow="tram rail_urban rail rail_electric ship" oneway="0"/>
    <type id="highway.secondary" priority="7" numLanes="2" speed="27.78" disallow="tram rail_urban rail rail_electric ship" oneway="0"/>
    <type id="highway.secondary_link" priority="6" numLanes="1" speed="22.22" disallow="tram rail_urban rail rail_electric ship" oneway="0"/>
    <type id="highway.service" priority="2" numLanes="1" speed="5.56" allow="delivery bicycle pedestrian" oneway="0"/>
    <type id="highway.services" priority="1" numLanes="1" speed="8.33" disallow="tram rail_urban rail rail_electric ship" oneway="0"/>
    <type id="highway.stairs" priority="1" numLanes="1" speed="1.39" allow="pedestrian" oneway="1" width="2.00"/>
    <type id="highway.step" priority="1" numLanes="1" speed="1.39" allow="pedestrian" oneway="1" width="2.00"/>
    <type id="highway.steps" priority="1" numLanes="1" speed="1.39" allow="pedestrian" oneway="1" width="2.00"/>
    <type id="highway.tertiary" priority="6" numLanes="1" speed="22.22" disallow="tram rail_urban rail rail_electric ship" oneway="0"/>
    <type id="highway.tertiary_link" priority="5" numLanes="1" speed="22.22" disallow="tram rail_urban rail rail_electric ship" oneway="0"/>
    <type id="highway.track" priority="1" numLanes="1" speed="5.56" disallow="tram rail_urban rail rail_electric ship" oneway="0"/>
    <type id="highway.trunk" priority="11" numLanes="2" speed="27.78" disallow="tram rail_urban rail rail_electric bicycle pedestrian ship" oneway="0"/>
    <type id="highway.trunk_link" priority="10" numLanes="1" speed="22.22" disallow="tram rail_urban rail rail_electric bicycle pedestrian ship" oneway="0"/>
    <type id="highway.unclassified" priority="5" numLanes="1" speed="13.89" disallow="tram rail_urban rail rail_electric ship" oneway="0"/>
    <type id="highway.unsurfaced" priority="1" numLanes="1" speed="8.33" disallow="tram rail_urban rail rail_electric ship" oneway="0"/>
    <type id="railway.light_rail" priority="15" numLanes="1" speed="27.78" allow="rail_urban" oneway="1"/>
    <type id="railway.preserved" priority="15" numLanes="1" speed="27.78" allow="rail" oneway="1"/>
    <type id="railway.rail" priority="15" numLanes="1" speed="83.33" allow="rail rail_electric" oneway="1"/>
    <type id="railway.subway" priority="15" numLanes="1" speed="27.78" allow="rail_urban" oneway="1"/>
    <type id="railway.tram" priority="15" numLanes="1" speed="13.89" allow="tram" oneway="1"/>

    <edge id=":2155264984_0" function="internal">
        <lane id=":2155264984_0_0" index="0" disallow="tram rail_urban rail rail_electric ship" speed="20.84" length="5.32" shape="2582.17,2276.04 2581.12,2275.05 2579.97,2274.49 2578.74,2274.35 2577.41,2274.65"/>
    </edge>
    <edge id=":2155264984_1" function="internal">
        <lane id=":2155264984_1_0" index="0" disallow="tram rail_urban rail rail_electric ship" speed="20.84" length="12.54" shape="2582.17,2276.04 2579.81,2272.66 2578.71,2269.67 2578.87,2267.07 2580.29,2264.86"/>
    </edge>
    <edge id=":2155264984_2" function="internal">
        <lane id=":2155264984_2_0" index="0" disallow="tram rail_urban rail rail_electric ship" speed="13.89" length="4.82" shape="2582.17,2276.04 2582.01,2274.56 2582.38,2273.72 2583.28,2273.51 2584.70,2273.93"/>
    </edge>
    <edge id=":2155264984_3" function="internal">
        <lane id=":2155264984_3_0" index="0" disallow="tram rail_urban rail rail_electric ship" speed="20.84" length="4.90" shape="2584.92,2269.56 2584.11,2270.62 2583.80,2271.70 2584.00,2272.80 2584.70,2273.93"/>
    </edge>
    <edge id=":2155264984_4" function="internal">
        <lane id=":2155264984_4_0" index="0" disallow="tram rail_urban rail rail_electric ship" speed="27.78" length="8.49" shape="2584.92,2269.56 2582.98,2271.48 2581.55,2272.71 2579.92,2273.64 2577.41,2274.65"/>
        <lane id=":2155264984_4_1" index="1" disallow="tram rail_urban rail rail_electric ship" speed="27.78" length="8.49" shape="2582.60,2267.21 2580.97,2268.84 2579.76,2269.89 2578.40,2270.69 2576.27,2271.55"/>
    </edge>
    <edge id=":2155264984_6" function="internal">
        <lane id=":2155264984_6_0" index="0" disallow="tram rail_urban rail rail_electric ship" speed="27.78" length="2.41" shape="2582.60,2267.21 2581.14,2267.49 2580.27,2267.19"/>
    </edge>
    <edge id=":2155264984_11" function="internal">
        <lane id=":2155264984_11_0" index="0" speed="27.78" length="2.41" shape="2580.27,2267.19 2579.98,2266.31 2580.29,2264.86"/>
    </edge>
    <edge id=":2155264984_7" function="internal">
        <lane id=":2155264984_7_0" index="0" disallow="tram rail_urban rail rail_electric ship" speed="27.78" length="5.66" shape="2574.00,2265.35 2575.34,2264.79 2576.19,2264.26 2576.94,2263.56 2577.97,2262.51"/>
        <lane id=":2155264984_7_1" index="1" disallow="tram rail_urban rail rail_electric ship" speed="27.78" length="5.66" shape="2575.13,2268.45 2576.87,2267.74 2577.98,2267.07 2578.95,2266.20 2580.29,2264.86"/>
    </edge>
    <edge id=":2155264984_9" function="internal">
        <lane id=":2155264984_9_0" index="0" disallow="tram rail_urban rail rail_electric ship" speed="20.84" length="3.48" shape="2575.13,2268.45 2577.17,2268.27 2578.51,2268.77"/>
    </edge>
    <edge id=":2155264984_10" function="internal">
        <lane id=":2155264984_10_0" index="0" disallow="tram rail_urban rail rail_electric ship" speed="27.78" length="2.41" shape="2575.13,2268.45 2576.58,2268.80 2577.25,2269.43"/>
    </edge>
    <edge id=":2155264984_12" function="internal">
        <lane id=":2155264984_12_0" index="0" speed="20.84" length="8.15" shape="2578.51,2268.77 2579.44,2269.12 2581.95,2271.01 2584.70,2273.93"/>
    </edge>
    <edge id=":2155264984_13" function="internal">
        <lane id=":2155264984_13_0" index="0" speed="27.78" length="2.41" shape="2577.25,2269.43 2577.15,2270.35 2576.27,2271.55"/>
    </edge>
    <edge id=":2155264997_0" function="internal">
        <lane id=":2155264997_0_0" index="0" disallow="tram rail_urban rail rail_electric ship" speed="27.78" length="10.79" shape="2364.51,2329.80 2362.45,2331.85 2360.89,2333.28 2359.86,2334.93 2359.42,2337.62"/>
        <lane id=":2155264997_0_1" index="1" disallow="tram rail_urban rail rail_electric ship" speed="27.78" length="10.79" shape="2362.02,2327.64 2359.54,2330.20 2357.74,2332.04 2356.61,2334.14 2356.12,2337.49"/>
    </edge>
    <edge id=":2155264997_2" function="internal">
        <lane id=":2155264997_2_0" index="0" disallow="tram rail_urban rail rail_electric ship" speed="20.84" length="6.55" shape="2362.02,2327.64 2358.20,2330.82 2356.62,2330.94"/>
    </edge>
    <edge id=":2155264997_3" function="internal">
        <lane id=":2155264997_3_0" index="0" disallow="tram rail_urban rail rail_electric ship" speed="27.78" length="2.54" shape="2362.02,2327.64 2360.58,2328.03 2359.69,2327.80 2359.64,2327.68"/>
    </edge>
    <edge id=":2155264997_11" function="internal">
        <lane id=":2155264997_11_0" index="0" speed="20.84" length="11.86" shape="2356.62,2330.94 2354.85,2331.07 2351.95,2328.38 2349.51,2322.76"/>
    </edge>
    <edge id=":2155264997_12" function="internal">
        <lane id=":2155264997_12_0" index="0" speed="27.78" length="2.28" shape="2359.64,2327.68 2359.34,2326.95 2359.53,2325.47"/>
    </edge>
    <edge id=":2155264997_4" function="internal">
        <lane id=":2155264997_4_0" index="0" disallow="tram rail_urban rail rail_electric ship" speed="20.84" length="6.38" shape="2352.67,2321.78 2353.50,2323.68 2354.51,2324.57 2355.69,2324.45 2357.04,2323.31"/>
    </edge>
    <edge id=":2155264997_5" function="internal">
        <lane id=":2155264997_5_0" index="0" disallow="tram rail_urban rail rail_electric ship" speed="20.84" length="16.23" shape="2352.67,2321.78 2353.88,2325.12 2355.07,2328.41 2355.93,2332.31 2356.12,2337.49"/>
    </edge>
    <edge id=":2155264997_6" function="internal">
        <lane id=":2155264997_6_0" index="0" disallow="tram rail_urban rail rail_electric ship" speed="13.89" length="4.82" shape="2352.67,2321.78 2352.25,2323.20 2351.58,2323.84 2350.67,2323.69 2349.51,2322.76"/>
    </edge>
    <edge id=":2155264997_7" function="internal">
        <lane id=":2155264997_7_0" index="0" disallow="tram rail_urban rail rail_electric ship" speed="20.84" length="14.56" shape="2349.53,2337.22 2349.86,2332.58 2350.19,2329.07 2350.18,2326.02 2349.51,2322.76"/>
    </edge>
    <edge id=":2155264997_8" function="internal">
        <lane id=":2155264997_8_0" index="0" disallow="tram rail_urban rail rail_electric ship" speed="27.78" length="15.25" shape="2349.53,2337.22 2350.11,2332.55 2351.46,2329.54 2353.72,2326.89 2357.04,2323.31"/>
        <lane id=":2155264997_8_1" index="1" disallow="tram rail_urban rail rail_electric ship" speed="27.78" length="15.25" shape="2352.82,2337.35 2353.36,2333.35 2354.60,2330.79 2356.63,2328.54 2359.53,2325.47"/>
    </edge>
    <edge id=":2155264997_10" function="internal">
        <lane id=":2155264997_10_0" index="0" disallow="tram rail_urban rail rail_electric ship" speed="27.78" length="2.64" shape="2352.82,2337.35 2353.70,2336.15 2354.54,2335.77 2354.74,2335.88"/>
    </edge>
    <edge id=":2155264997_13" function="internal">
        <lane id=":2155264997_13_0" index="0" speed="27.78" length="2.18" shape="2354.74,2335.88 2355.35,2336.22 2356.12,2337.49"/>
    </edge>
    <edge id=":2155265058_0" function="internal">
        <lane id=":2155265058_0_0" index="0" disallow="tram rail_urban rail rail_electric ship" speed="19.45" length="7.08" shape="2335.74,2566.15 2334.17,2565.55 2332.53,2565.42 2330.80,2565.76 2328.99,2566.57"/>
    </edge>
    <edge id=":2155265058_1" function="internal">
        <lane id=":2155265058_1_0" index="0" disallow="tram rail_urban rail rail_electric ship" speed="19.45" length="13.55" shape="2335.74,2566.15 2332.12,2563.67 2330.08,2561.06 2329.60,2558.32 2330.69,2555.46"/>
    </edge>
    <edge id=":2155265058_2" function="internal">
        <lane id=":2155265058_2_0" index="0" disallow="tram rail_urban rail rail_electric ship" speed="11.11" length="4.82" shape="2335.74,2566.15 2335.05,2564.83 2335.09,2563.91 2335.85,2563.39 2337.33,2563.26"/>
    </edge>
    <edge id=":2155265058_3" function="internal">
        <lane id=":2155265058_3_0" index="0" disallow="tram rail_urban rail rail_electric ship" speed="19.45" length="5.08" shape="2336.25,2559.01 2335.67,2560.29 2335.65,2561.43 2336.21,2562.42 2337.33,2563.26"/>
    </edge>
    <edge id=":2155265058_4" function="internal">
        <lane id=":2155265058_4_0" index="0" disallow="tram rail_urban rail rail_electric ship" speed="27.78" length="9.86" shape="2336.25,2559.01 2334.56,2561.69 2333.27,2563.48 2331.65,2564.92 2328.99,2566.57"/>
        <lane id=":2155265058_4_1" index="1" disallow="tram rail_urban rail rail_electric ship" speed="27.78" length="9.86" shape="2333.47,2557.23 2332.05,2559.52 2330.97,2561.05 2329.61,2562.29 2327.36,2563.69"/>
    </edge>
    <edge id=":2155265058_6" function="internal">
        <lane id=":2155265058_6_0" index="0" disallow="tram rail_urban rail rail_electric ship" speed="27.78" length="2.41" shape="2333.47,2557.23 2332.10,2557.83 2331.19,2557.74"/>
    </edge>
    <edge id=":2155265058_11" function="internal">
        <lane id=":2155265058_11_0" index="0" speed="27.78" length="2.41" shape="2331.19,2557.74 2330.71,2556.94 2330.69,2555.46"/>
    </edge>
    <edge id=":2155265058_7" function="internal">
        <lane id=":2155265058_7_0" index="0" disallow="tram rail_urban rail rail_electric ship" speed="27.78" length="6.62" shape="2324.12,2557.94 2325.54,2557.02 2326.37,2556.19 2327.02,2555.16 2327.91,2553.68"/>
        <lane id=":2155265058_7_1" index="1" disallow="tram rail_urban rail rail_electric ship" speed="27.78" length="6.62" shape="2325.74,2560.82 2327.58,2559.66 2328.67,2558.62 2329.53,2557.34 2330.69,2555.46"/>
    </edge>
    <edge id=":2155265058_9" function="internal">
        <lane id=":2155265058_9_0" index="0" disallow="tram rail_urban rail rail_electric ship" speed="19.45" length="3.71" shape="2325.74,2560.82 2327.79,2560.22 2329.36,2560.35"/>
    </edge>
    <edge id=":2155265058_10" function="internal">
        <lane id=":2155265058_10_0" index="0" disallow="tram rail_urban rail rail_electric ship" speed="27.78" length="2.41" shape="2325.74,2560.82 2327.23,2560.93 2327.99,2561.44"/>
    </edge>
    <edge id=":2155265058_12" function="internal">
        <lane id=":2155265058_12_0" index="0" speed="19.45" length="8.55" shape="2329.36,2560.35 2330.40,2560.43 2333.58,2561.45 2337.33,2563.26"/>
    </edge>
    <edge id=":2155265058_13" function="internal">
        <lane id=":2155265058_13_0" index="0" speed="27.78" length="2.41" shape="2327.99,2561.44 2328.04,2562.37 2327.36,2563.69"/>
    </edge>
    <edge id=":2155265159_0" function="internal">
        <lane id=":2155265159_0_0" index="0" disallow="tram rail_urban rail rail_electric ship" speed="27.78" length="18.91" shape="1710.13,3247.40 1709.29,3241.79 1708.50,3237.96 1707.93,3234.13 1707.73,3228.48"/>
        <lane id=":2155265159_0_1" index="1" disallow="tram rail_urban rail rail_electric ship" speed="27.78" length="18.91" shape="1713.41,3247.02 1712.58,3241.53 1711.80,3237.78 1711.23,3234.02 1711.03,3228.49"/>
    </edge>
    <edge id=":2155265159_2" function="internal">
        <lane id=":2155265159_2_0" index="0" disallow="tram rail_urban rail rail_electric ship" speed="25.00" length="12.45" shape="1713.41,3247.02 1712.85,3235.02 1713.02,3234.62"/>
    </edge>
    <edge id=":2155265159_3" function="internal">
        <lane id=":2155265159_3_0" index="0" disallow="tram rail_urban rail rail_electric ship" speed="27.78" length="2.41" shape="1713.41,3247.02 1714.09,3245.70 1714.86,3245.19"/>
    </edge>
    <edge id=":2155265159_11" function="internal">
        <lane id=":2155265159_11_0" index="0" speed="25.00" length="22.02" shape="1713.02,3234.62 1714.80,3230.36 1719.24,3233.05 1726.19,3243.08"/>
    </edge>
    <edge id=":2155265159_12" function="internal">
        <lane id=":2155265159_12_0" index="0" speed="27.78" length="2.41" shape="1714.86,3245.19 1715.73,3245.51 1716.69,3246.65"/>
    </edge>
    <edge id=":2155265159_4" function="internal">
        <lane id=":2155265159_4_0" index="0" disallow="tram rail_urban rail rail_electric ship" speed="25.00" length="9.63" shape="1723.47,3244.97 1721.55,3242.21 1720.33,3241.51 1719.80,3242.86 1719.96,3246.27"/>
    </edge>
    <edge id=":2155265159_5" function="internal">
        <lane id=":2155265159_5_0" index="0" disallow="tram rail_urban rail rail_electric ship" speed="25.00" length="21.41" shape="1723.47,3244.97 1720.44,3241.99 1716.27,3238.87 1712.59,3234.68 1711.03,3228.49"/>
    </edge>
    <edge id=":2155265159_6" function="internal">
        <lane id=":2155265159_6_0" index="0" disallow="tram rail_urban rail rail_electric ship" speed="22.22" length="4.83" shape="1723.47,3244.97 1723.44,3243.48 1723.89,3242.67 1724.80,3242.53 1726.19,3243.08"/>
    </edge>
    <edge id=":2155265159_7" function="internal">
        <lane id=":2155265159_7_0" index="0" disallow="tram rail_urban rail rail_electric ship" speed="25.00" length="17.40" shape="1717.63,3228.52 1718.59,3233.76 1720.93,3237.36 1723.76,3240.18 1726.19,3243.08"/>
    </edge>
    <edge id=":2155265159_8" function="internal">
        <lane id=":2155265159_8_0" index="0" disallow="tram rail_urban rail rail_electric ship" speed="27.78" length="18.13" shape="1717.63,3228.52 1717.83,3233.82 1718.40,3237.42 1719.16,3241.00 1719.96,3246.27"/>
        <lane id=":2155265159_8_1" index="1" disallow="tram rail_urban rail rail_electric ship" speed="27.78" length="18.13" shape="1714.33,3228.51 1714.53,3233.92 1715.10,3237.60 1715.87,3241.26 1716.69,3246.65"/>
    </edge>
    <edge id=":2155265159_10" function="internal">
        <lane id=":2155265159_10_0" index="0" disallow="tram rail_urban rail rail_electric ship" speed="27.78" length="2.41" shape="1714.33,3228.51 1713.50,3229.74 1712.67,3230.15"/>
    </edge>
    <edge id=":2155265159_13" function="internal">
        <lane id=":2155265159_13_0" index="0" speed="27.78" length="2.41" shape="1712.67,3230.15 1711.85,3229.73 1711.03,3228.49"/>
    </edge>
    <edge id=":2155265288_0" function="internal">
        <lane id=":2155265288_0_0" index="0" disallow="tram rail_urban rail rail_electric ship" speed="27.78" length="4.82" shape="462.43,4390.06 461.72,4391.37 460.94,4391.86 460.08,4391.52 459.14,4390.36"/>
    </edge>
    <edge id=":2155265421_0" function="internal">
        <lane id=":2155265421_0_0" index="0" disallow="tram rail_urban rail rail_electric ship" speed="11.11" length="4.82" shape="5984.92,5919.59 5984.57,5921.03 5983.93,5921.70 5983.02,5921.60 5981.82,5920.72"/>
    </edge>
    <edge id=":2192215048_0" function="internal">
        <lane id=":2192215048_0_0" index="0" disallow="tram rail_urban rail rail_electric ship" speed="11.11" length="9.59" shape="2494.95,2743.00 2492.38,2733.76"/>
    </edge>
    <edge id=":2192215048_1" function="internal">
        <lane id=":2192215048_1_0" index="0" disallow="tram rail_urban rail rail_electric ship" speed="12.50" length="4.43" shape="2494.95,2743.00 2494.83,2740.71 2495.51,2738.68"/>
    </edge>
    <edge id=":2192215048_2" function="internal">
        <lane id=":2192215048_2_0" index="0" disallow="tram rail_urban rail rail_electric ship" speed="11.11" length="2.41" shape="2494.95,2743.00 2495.47,2741.61 2496.18,2741.02"/>
    </edge>
    <edge id=":2192215048_9" function="internal">
        <lane id=":2192215048_9_0" index="0" speed="12.50" length="6.17" shape="2495.51,2738.68 2495.58,2738.48 2497.19,2736.31 2499.66,2734.20"/>
    </edge>
    <edge id=":2192215048_10" function="internal">
        <lane id=":2192215048_10_0" index="0" speed="11.11" length="2.41" shape="2496.18,2741.02 2497.07,2741.23 2498.16,2742.25"/>
    </edge>
    <edge id=":2192215048_3" function="internal">
        <lane id=":2192215048_3_0" index="0" disallow="tram rail_urban rail rail_electric ship" speed="12.50" length="6.71" shape="2501.58,2736.88 2499.86,2738.29 2498.72,2739.66 2498.15,2740.98 2498.16,2742.25"/>
    </edge>
    <edge id=":2192215048_4" function="internal">
        <lane id=":2192215048_4_0" index="0" disallow="tram rail_urban rail rail_electric ship" speed="12.50" length="12.17" shape="2501.58,2736.88 2498.46,2738.50 2495.89,2738.53 2493.86,2736.95 2492.38,2733.76"/>
    </edge>
    <edge id=":2192215048_5" function="internal">
        <lane id=":2192215048_5_0" index="0" disallow="tram rail_urban rail rail_electric ship" speed="13.89" length="4.82" shape="2501.58,2736.88 2500.09,2736.93 2499.27,2736.50 2499.13,2735.59 2499.66,2734.20"/>
    </edge>
    <edge id=":2192215048_6" function="internal">
        <lane id=":2192215048_6_0" index="0" disallow="tram rail_urban rail rail_electric ship" speed="12.50" length="5.45" shape="2495.54,2732.80 2496.20,2734.23 2497.11,2734.93 2498.26,2734.92 2499.66,2734.20"/>
    </edge>
    <edge id=":2192215048_7" function="internal">
        <lane id=":2192215048_7_0" index="0" disallow="tram rail_urban rail rail_electric ship" speed="11.11" length="9.81" shape="2495.54,2732.80 2498.16,2742.25"/>
    </edge>
    <edge id=":2192215048_8" function="internal">
        <lane id=":2192215048_8_0" index="0" disallow="tram rail_urban rail rail_electric ship" speed="11.11" length="2.41" shape="2495.54,2732.80 2495.11,2734.23 2494.44,2734.86"/>
    </edge>
    <edge id=":2192215048_11" function="internal">
        <lane id=":2192215048_11_0" index="0" speed="11.11" length="2.41" shape="2494.44,2734.86 2493.53,2734.71 2492.38,2733.76"/>
    </edge>
    <edge id=":2192215244_0" function="internal">
        <lane id=":2192215244_0_0" index="0" disallow="tram rail_urban rail rail_electric ship" speed="16.67" length="5.35" shape="2511.20,3349.74 2510.98,3348.23 2510.34,3347.28 2509.25,3346.90 2507.74,3347.08"/>
    </edge>
    <edge id=":2192215244_1" function="internal">
        <lane id=":2192215244_1_0" index="0" disallow="tram rail_urban rail rail_electric ship" speed="11.11" length="9.33" shape="2511.20,3349.74 2511.12,3346.96 2511.15,3344.99 2511.66,3343.18 2513.05,3340.87"/>
    </edge>
    <edge id=":2192215244_2" function="internal">
        <lane id=":2192215244_2_0" index="0" disallow="tram rail_urban rail rail_electric ship" speed="11.11" length="4.82" shape="2511.20,3349.74 2512.02,3348.50 2512.85,3348.09 2513.67,3348.51 2514.50,3349.74"/>
    </edge>
    <edge id=":2192215244_3" function="internal">
        <lane id=":2192215244_3_0" index="0" disallow="tram rail_urban rail rail_electric ship" speed="11.11" length="7.30" shape="2515.75,3342.77 2514.69,3344.58 2514.36,3346.01 2514.41,3347.57 2514.50,3349.74"/>
    </edge>
    <edge id=":2192215244_4" function="internal">
        <lane id=":2192215244_4_0" index="0" disallow="tram rail_urban rail rail_electric ship" speed="16.67" length="9.43" shape="2515.75,3342.77 2514.01,3344.85 2512.41,3345.88 2510.47,3346.43 2507.74,3347.08"/>
    </edge>
    <edge id=":2192215244_5" function="internal">
        <lane id=":2192215244_5_0" index="0" disallow="tram rail_urban rail rail_electric ship" speed="11.11" length="2.63" shape="2515.75,3342.77 2514.36,3343.31 2513.45,3343.17 2513.34,3342.97"/>
    </edge>
    <edge id=":2192215244_9" function="internal">
        <lane id=":2192215244_9_0" index="0" speed="11.11" length="2.19" shape="2513.34,3342.97 2513.01,3342.35 2513.05,3340.87"/>
    </edge>
    <edge id=":2192215244_6" function="internal">
        <lane id=":2192215244_6_0" index="0" disallow="tram rail_urban rail rail_electric ship" speed="16.67" length="7.13" shape="2506.89,3343.89 2508.97,3343.44 2510.47,3343.10 2511.72,3342.40 2513.05,3340.87"/>
    </edge>
    <edge id=":2192215244_7" function="internal">
        <lane id=":2192215244_7_0" index="0" disallow="tram rail_urban rail rail_electric ship" speed="16.67" length="5.36" shape="2506.89,3343.89 2510.22,3343.49 2512.11,3344.16"/>
    </edge>
    <edge id=":2192215244_8" function="internal">
        <lane id=":2192215244_8_0" index="0" disallow="tram rail_urban rail rail_electric ship" speed="22.22" length="2.52" shape="2506.89,3343.89 2508.30,3344.37 2508.91,3345.06 2508.89,3345.17"/>
    </edge>
    <edge id=":2192215244_10" function="internal">
        <lane id=":2192215244_10_0" index="0" speed="16.67" length="6.40" shape="2512.11,3344.16 2512.60,3344.34 2514.03,3346.42 2514.50,3349.74"/>
    </edge>
    <edge id=":2192215244_11" function="internal">
        <lane id=":2192215244_11_0" index="0" speed="22.22" length="2.30" shape="2508.89,3345.17 2508.72,3345.96 2507.74,3347.08"/>
    </edge>
    <edge id=":2192215349_0" function="internal">
        <lane id=":2192215349_0_0" index="0" disallow="tram rail_urban rail rail_electric ship" speed="11.11" length="15.96" shape="2564.62,3268.65 2555.93,3282.04"/>
    </edge>
    <edge id=":2192215349_1" function="internal">
        <lane id=":2192215349_1_0" index="0" disallow="tram rail_urban rail rail_electric ship" speed="11.11" length="22.41" shape="2564.62,3268.65 2559.89,3274.71 2556.70,3276.18 2555.04,3273.08 2554.91,3265.39"/>
    </edge>
    <edge id=":2192215349_2" function="internal">
        <lane id=":2192215349_2_0" index="0" disallow="tram rail_urban rail rail_electric ship" speed="11.11" length="4.82" shape="2564.62,3268.65 2563.25,3269.23 2562.34,3269.12 2561.88,3268.32 2561.87,3266.83"/>
    </edge>
    <edge id=":2192215349_3" function="internal">
        <lane id=":2192215349_3_0" index="0" disallow="tram rail_urban rail rail_electric ship" speed="11.11" length="8.45" shape="2558.21,3265.61 2558.25,3268.50 2558.88,3269.67 2560.08,3269.12 2561.87,3266.83"/>
    </edge>
    <edge id=":2192215349_4" function="internal">
        <lane id=":2192215349_4_0" index="0" disallow="tram rail_urban rail rail_electric ship" speed="11.11" length="16.73" shape="2558.21,3265.61 2558.07,3269.67 2557.90,3274.08 2557.32,3278.36 2555.93,3282.04"/>
    </edge>
    <edge id=":2192215349_5" function="internal">
        <lane id=":2192215349_5_0" index="0" disallow="tram rail_urban rail rail_electric ship" speed="11.11" length="4.82" shape="2558.21,3265.61 2557.30,3266.79 2556.45,3267.15 2555.66,3266.68 2554.91,3265.39"/>
    </edge>
    <edge id=":2192215349_6" function="internal">
        <lane id=":2192215349_6_0" index="0" disallow="tram rail_urban rail rail_electric ship" speed="11.11" length="15.23" shape="2553.09,3280.36 2554.41,3276.90 2554.84,3273.13 2554.85,3269.23 2554.91,3265.39"/>
    </edge>
    <edge id=":2192215349_7" function="internal">
        <lane id=":2192215349_7_0" index="0" disallow="tram rail_urban rail rail_electric ship" speed="11.11" length="16.12" shape="2553.09,3280.36 2561.87,3266.83"/>
    </edge>
    <edge id=":2192215349_8" function="internal">
        <lane id=":2192215349_8_0" index="0" disallow="tram rail_urban rail rail_electric ship" speed="11.11" length="4.82" shape="2553.09,3280.36 2554.43,3279.71 2555.35,3279.78 2555.85,3280.55 2555.93,3282.04"/>
    </edge>
    <edge id=":2192215351_0" function="internal">
        <lane id=":2192215351_0_0" index="0" disallow="tram rail_urban rail rail_electric ship" speed="12.50" length="13.02" shape="2562.92,3760.62 2561.00,3755.96 2559.32,3752.53 2557.88,3750.34 2556.68,3749.38"/>
    </edge>
    <edge id=":2192215351_1" function="internal">
        <lane id=":2192215351_1_0" index="0" disallow="tram rail_urban rail rail_electric ship" speed="12.50" length="20.17" shape="2562.92,3760.62 2561.06,3754.10 2561.79,3750.87 2565.09,3750.93 2570.98,3754.29"/>
    </edge>
    <edge id=":2192215351_2" function="internal">
        <lane id=":2192215351_2_0" index="0" disallow="tram rail_urban rail rail_electric ship" speed="13.89" length="4.82" shape="2562.92,3760.62 2563.25,3759.17 2563.87,3758.48 2564.79,3758.57 2566.00,3759.43"/>
    </edge>
    <edge id=":2192215351_3" function="internal">
        <lane id=":2192215351_3_0" index="0" disallow="tram rail_urban rail rail_electric ship" speed="12.50" length="7.75" shape="2569.10,3757.00 2566.84,3755.71 2565.56,3755.68 2565.29,3756.92 2566.00,3759.43"/>
    </edge>
    <edge id=":2192215351_4" function="internal">
        <lane id=":2192215351_4_0" index="0" disallow="tram rail_urban rail rail_electric ship" speed="11.11" length="14.63" shape="2569.10,3757.00 2566.10,3754.81 2563.14,3752.68 2560.06,3750.80 2556.68,3749.38"/>
    </edge>
    <edge id=":2192215351_5" function="internal">
        <lane id=":2192215351_5_0" index="0" disallow="tram rail_urban rail rail_electric ship" speed="11.11" length="2.41" shape="2569.10,3757.00 2568.55,3755.61 2568.69,3754.70"/>
    </edge>
    <edge id=":2192215351_9" function="internal">
        <lane id=":2192215351_9_0" index="0" speed="11.11" length="2.41" shape="2568.69,3754.70 2569.50,3754.26 2570.98,3754.29"/>
    </edge>
    <edge id=":2192215351_6" function="internal">