<?xml version="1.0" encoding="UTF-8"?>

<!-- generated on 03/19/18 13:23:42 by SUMO netconvert Version 0.32.0
<?xml version="1.0" encoding="UTF-8"?>

<configuration xmlns:xsi="http://www.w3.org/2001/XMLSchema-instance" xsi:noNamespaceSchemaLocation="http://sumo.dlr.de/xsd/netconvertConfiguration.xsd">

    <input>
        <osm-files value="high.osm"/>
    </input>

    <output>
        <output-file value="high.net.xml"/>
    </output>

    <projection>
        <proj.utm value="true"/>
    </projection>

</configuration>
-->

<net version="0.27" xmlns:xsi="http://www.w3.org/2001/XMLSchema-instance" xsi:noNamespaceSchemaLocation="http://sumo.dlr.de/xsd/net_file.xsd">

    <location netOffset="-553127.87,-2159655.84" convBoundary="0.00,0.00,12689.87,14651.48" origBoundary="75.506405,19.530929,75.627507,19.663324" projParameter="+proj=utm +zone=43 +ellps=WGS84 +datum=WGS84 +units=m +no_defs"/>

    <type id="highway.bridleway" priority="1" numLanes="1" speed="2.78" allow="pedestrian" oneway="1" width="2.00"/>
    <type id="highway.bus_guideway" priority="1" numLanes="1" speed="8.33" allow="bus" oneway="1"/>
    <type id="highway.cycleway" priority="1" numLanes="1" speed="5.56" allow="bicycle" oneway="0" width="1.00"/>
    <type id="highway.footway" priority="1" numLanes="1" speed="2.78" allow="pedestrian" oneway="1" width="2.00"/>
    <type id="highway.ford" priority="1" numLanes="1" speed="2.78" allow="army" oneway="0"/>
    <type id="highway.living_street" priority="3" numLanes="1" speed="2.78" disallow="tram rail_urban rail rail_electric ship" oneway="0"/>
    <type id="highway.motorway" priority="13" numLanes="2" speed="44.44" allow="private emergency authority army vip passenger hov taxi bus coach delivery truck trailer motorcycle evehicle custom1 custom2" oneway="1"/>
    <type id="highway.motorway_link" priority="12" numLanes="1" speed="22.22" allow="private emergency authority army vip passenger hov taxi bus coach delivery truck trailer motorcycle evehicle custom1 custom2" oneway="1"/>
    <type id="highway.path" priority="1" numLanes="1" speed="2.78" allow="bicycle pedestrian" oneway="1" width="2.00"/>
    <type id="highway.pedestrian" priority="1" numLanes="1" speed="2.78" allow="pedestrian" oneway="1" width="2.00"/>
    <type id="highway.primary" priority="9" numLanes="2" speed="27.78" disallow="tram rail_urban rail rail_electric ship" oneway="0"/>
    <type id="highway.primary_link" priority="8" numLanes="1" speed="22.22" disallow="tram rail_urban rail rail_electric ship" oneway="0"/>
    <type id="highway.raceway" priority="14" numLanes="2" speed="83.33" allow="vip" oneway="0"/>
    <type id="highway.residential" priority="4" numLanes="1" speed="13.89" disallow="tram rail_urban rail rail_electric ship" oneway="0"/>
    <type id="highway.secondary" priority="7" numLanes="2" speed="27.78" disallow="tram rail_urban rail rail_electric ship" oneway="0"/>
    <type id="highway.secondary_link" priority="6" numLanes="1" speed="22.22" disallow="tram rail_urban rail rail_electric ship" oneway="0"/>
    <type id="highway.service" priority="2" numLanes="1" speed="5.56" allow="delivery bicycle pedestrian" oneway="0"/>
    <type id="highway.services" priority="1" numLanes="1" speed="8.33" disallow="tram rail_urban rail rail_electric ship" oneway="0"/>
    <type id="highway.stairs" priority="1" numLanes="1" speed="1.39" allow="pedestrian" oneway="1" width="2.00"/>
    <type id="highway.step" priority="1" numLanes="1" speed="1.39" allow="pedestrian" oneway="1" width="2.00"/>
    <type id="highway.steps" priority="1" numLanes="1" speed="1.39" allow="pedestrian" oneway="1" width="2.00"/>
    <type id="highway.tertiary" priority="6" numLanes="1" speed="22.22" disallow="tram rail_urban rail rail_electric ship" oneway="0"/>
    <type id="highway.tertiary_link" priority="5" numLanes="1" speed="22.22" disallow="tram rail_urban rail rail_electric ship" oneway="0"/>
    <type id="highway.track" priority="1" numLanes="1" speed="5.56" disallow="tram rail_urban rail rail_electric ship" oneway="0"/>
    <type id="highway.trunk" priority="11" numLanes="2" speed="27.78" disallow="tram rail_urban rail rail_electric bicycle pedestrian ship" oneway="0"/>
    <type id="highway.trunk_link" priority="10" numLanes="1" speed="22.22" disallow="tram rail_urban rail rail_electric bicycle pedestrian ship" oneway="0"/>
    <type id="highway.unclassified" priority="5" numLanes="1" speed="13.89" disallow="tram rail_urban rail rail_electric ship" oneway="0"/>
    <type id="highway.unsurfaced" priority="1" numLanes="1" speed="8.33" disallow="tram rail_urban rail rail_electric ship" oneway="0"/>
    <type id="railway.light_rail" priority="15" numLanes="1" speed="27.78" allow="rail_urban" oneway="1"/>
    <type id="railway.preserved" priority="15" numLanes="1" speed="27.78" allow="rail" oneway="1"/>
    <type id="railway.rail" priority="15" numLanes="1" speed="83.33" allow="rail rail_electric" oneway="1"/>
    <type id="railway.subway" priority="15" numLanes="1" speed="27.78" allow="rail_urban" oneway="1"/>
    <type id="railway.tram" priority="15" numLanes="1" speed="13.89" allow="tram" oneway="1"/>

    <edge id=":2383851366_0" function="internal">
        <lane id=":2383851366_0_0" index="0" disallow="tram rail_urban rail rail_electric ship" speed="27.78" length="4.82" shape="12689.69,4419.97 12691.01,4420.65 12691.51,4421.43 12691.19,4422.29 12690.05,4423.25"/>
    </edge>
    <edge id=":2534123307_0" function="internal">
        <lane id=":2534123307_0_0" index="0" disallow="tram rail_urban rail rail_electric ship" speed="27.78" length="4.82" shape="0.43,152.06 -0.98,151.59 -1.59,150.90 -1.41,149.99 -0.43,148.88"/>
    </edge>
    <edge id=":4153782853_0" function="internal">
        <lane id=":4153782853_0_0" index="0" disallow="tram rail_urban rail rail_electric ship" speed="22.22" length="4.82" shape="930.99,14653.13 929.75,14652.31 929.34,14651.48 929.75,14650.66 930.98,14649.83"/>
    </edge>
    <edge id=":4153803930_0" function="internal">
        <lane id=":4153803930_0_0" index="0" disallow="tram rail_urban rail rail_electric ship" speed="25.00" length="6.67" shape="8823.25,4531.49 8821.97,4531.45 8820.66,4532.01 8819.32,4533.15 8817.97,4534.89"/>
    </edge>
    <edge id=":4153803930_1" function="internal">
        <lane id=":4153803930_1_0" index="0" disallow="tram rail_urban rail rail_electric ship" speed="27.78" length="9.86" shape="8823.25,4531.49 8813.71,4528.97"/>
        <lane id=":4153803930_1_1" index="1" disallow="tram rail_urban rail rail_electric ship" speed="27.78" length="9.86" shape="8824.08,4528.29 8814.56,4525.78"/>
    </edge>
    <edge id=":4153803930_3" function="internal">
        <lane id=":4153803930_3_0" index="0" disallow="tram rail_urban rail rail_electric ship" speed="27.78" length="2.41" shape="8824.08,4528.29 8823.09,4527.19 8822.89,4526.28"/>
    </edge>
    <edge id=":4153803930_11" function="internal">
        <lane id=":4153803930_11_0" index="0" speed="27.78" length="2.41" shape="8822.89,4526.28 8823.50,4525.59 8824.90,4525.10"/>
    </edge>
    <edge id=":4153803930_4" function="internal">
        <lane id=":4153803930_4_0" index="0" disallow="tram rail_urban rail rail_electric ship" speed="27.78" length="9.81" shape="8816.26,4519.40 8825.73,4521.90"/>
        <lane id=":4153803930_4_1" index="1" disallow="tram rail_urban rail rail_electric ship" speed="27.78" length="9.81" shape="8815.41,4522.59 8824.90,4525.10"/>
    </edge>
    <edge id=":4153803930_6" function="internal">
        <lane id=":4153803930_6_0" index="0" disallow="tram rail_urban rail rail_electric ship" speed="25.00" length="5.44" shape="8815.41,4522.59 8819.03,4524.28 8819.79,4525.51"/>
    </edge>
    <edge id=":4153803930_7" function="internal">
        <lane id=":4153803930_7_0" index="0" disallow="tram rail_urban rail rail_electric ship" speed="27.78" length="2.41" shape="8815.41,4522.59 8816.39,4523.70 8816.58,4524.61"/>
    </edge>
    <edge id=":4153803930_12" function="internal">
        <lane id=":4153803930_12_0" index="0" speed="25.00" length="10.22" shape="8819.79,4525.51 8820.66,4526.89 8820.30,4530.43 8817.97,4534.89"/>
    </edge>
    <edge id=":4153803930_13" function="internal">
        <lane id=":4153803930_13_0" index="0" speed="27.78" length="2.41" shape="8816.58,4524.61 8815.97,4525.30 8814.56,4525.78"/>
    </edge>
    <edge id=":4153803930_8" function="internal">
        <lane id=":4153803930_8_0" index="0" disallow="tram rail_urban rail rail_electric ship" speed="25.00" length="5.46" shape="8815.23,4533.04 8815.92,4531.62 8815.90,4530.47 8815.16,4529.58 8813.71,4528.97"/>
    </edge>
    <edge id=":4153803930_9" function="internal">
        <lane id=":4153803930_9_0" index="0" disallow="tram rail_urban rail rail_electric ship" speed="25.00" length="13.06" shape="8815.23,4533.04 8818.09,4529.21 8820.66,4526.61 8822.93,4525.24 8824.90,4525.10"/>
    </edge>
    <edge id=":4153803930_10" function="internal">
        <lane id=":4153803930_10_0" index="0" disallow="tram rail_urban rail rail_electric ship" speed="22.22" length="4.82" shape="8815.23,4533.04 8816.61,4532.47 8817.52,4532.60 8817.98,4533.40 8817.97,4534.89"/>
    </edge>

    <edge id="-246365988#0" from="4153803930" to="2534123307" priority="9" type="highway.primary" shape="8821.96,4526.04 8651.34,4480.55 8507.21,4437.76 8388.47,4376.72 8307.22,4309.32 7563.62,3500.88 7000.13,2893.18 6897.11,2839.03 6810.97,2818.83 6697.04,2827.06 6448.40,2936.55 6245.34,3013.74 6135.84,3013.26 6011.84,2970.23 5215.34,2767.14 4979.89,2699.92 4916.73,2671.41 4823.35,2627.48 4409.08,2338.73 3780.88,1936.65 3198.02,1563.03 2724.39,1242.90 2016.83,778.29 1195.73,214.33 854.87,34.05 693.11,0.00 446.96,30.59 0.00,150.47">
        <lane id="-246365988#0_0" index="0" disallow="tram rail_urban rail rail_electric ship" speed="27.78" length="10391.42" shape="8813.71,4528.97 8650.00,4485.31 8505.36,4442.37 8385.73,4380.87 8303.81,4312.92 7559.98,3504.24 6997.07,2897.17 6895.36,2843.71 6810.57,2823.82 6698.25,2831.93 6450.28,2941.13 6246.24,3018.69 6134.99,3018.21 6010.42,2974.97 5214.05,2771.92 4978.18,2704.59 4914.66,2675.91 4820.86,2631.78 4406.33,2342.85 3778.21,1940.82 3195.30,1567.17 2721.64,1247.02 2014.07,782.40 1193.17,218.57 853.17,38.75 692.90,5.01 447.91,35.46 1.28,155.25"/>
        <lane id="-246365988#0_1" index="1" disallow="tram rail_urban rail rail_electric ship" speed="27.78" length="10391.42" shape="8814.56,4525.78 8650.89,4482.14 8506.59,4439.30 8387.56,4378.10 8306.08,4310.52 7562.41,3502.00 6999.11,2894.51 6896.53,2840.59 6810.84,2820.49 6697.44,2828.68 6449.02,2938.08 6245.64,3015.39 6135.56,3014.91 6011.37,2971.81 5214.91,2768.73 4979.32,2701.48 4916.04,2672.91 4822.52,2628.91 4408.17,2340.10 3779.99,1938.04 3197.11,1564.41 2723.47,1244.27 2015.91,779.66 1194.88,215.74 854.30,35.61 693.04,1.67 447.28,32.22 0.43,152.06"/>
    </edge>
    <edge id="-246365988#1" from="2383851366" to="4153803930" priority="9" type="highway.primary" shape="12689.87,4421.61 12420.20,4451.03 11438.58,4558.15 10502.51,4652.80 9717.74,4735.16 9633.92,4730.17 9550.72,4709.53 9443.55,4686.55 9282.43,4644.94 8821.96,4526.04">
        <lane id="-246365988#1_0" index="0" disallow="tram rail_urban rail rail_electric ship" speed="27.78" length="3908.50" shape="12690.41,4426.53 12420.74,4455.95 11439.10,4563.08 10503.02,4657.72 9717.85,4740.13 9633.17,4735.08 9549.60,4714.35 9442.41,4691.37 9281.20,4649.73 8823.25,4531.49"/>
        <lane id="-246365988#1_1" index="1" disallow="tram rail_urban rail rail_electric ship" speed="27.78" length="3908.50" shape="12690.05,4423.25 12420.38,4452.67 11438.76,4559.79 10502.68,4654.44 9717.78,4736.82 9633.67,4731.81 9550.35,4711.13 9443.17,4688.16 9282.02,4646.54 8824.08,4528.29"/>
    </edge>
    <edge id="-414208225" from="4153803930" to="4153782853" priority="6" type="highway.tertiary" shape="8821.96,4526.04 8750.41,4631.77 8689.33,4722.45 8617.50,4828.76 8563.22,4908.56 8496.48,5007.60 8454.63,5070.94 8413.89,5133.72 8389.60,5164.40 8370.98,5180.28 8339.94,5205.90 8325.25,5222.35 8296.34,5286.30 8267.44,5349.12 8265.09,5375.67 8269.70,5426.30 8278.02,5461.29 8293.33,5508.05 8303.36,5538.84 8302.75,5551.98 8298.21,5562.04 8288.06,5569.55 8272.57,5573.41 8230.91,5578.86 8199.67,5586.02 8176.84,5597.42 8170.90,5607.18 8168.60,5621.72 8172.41,5659.20 8179.02,5701.74 8181.63,5760.46 8178.47,5778.07 8163.76,5802.08 8152.74,5816.58 8139.76,5826.32 8106.53,5838.51 8067.38,5852.92 8012.44,5877.34 7958.61,5906.80 7876.56,5962.17 7709.07,6073.46 7527.21,6197.56 7416.68,6273.53 7359.16,6310.53 7259.95,6368.08 7215.96,6397.29 7176.50,6421.20 7128.31,6447.89 7036.12,6507.70 6859.92,6622.04 6743.20,6698.83 6567.29,6813.17 6493.71,6860.18 6411.11,6913.87 6291.59,6988.69 6219.99,7034.88 6177.98,7062.70 6163.59,7074.12 6148.64,7090.85 6093.00,7158.05 6040.46,7221.91 5993.01,7282.15 5980.59,7294.69 5952.97,7309.14 5887.88,7342.49 5716.86,7428.33 5540.20,7516.39 5373.69,7599.73 5159.56,7706.12 4966.85,7801.12 4866.55,7849.73 4738.93,7913.07 4637.79,7962.52 4619.19,7971.96 4608.75,7984.51 4590.89,8025.55 4562.51,8105.43 4545.78,8147.87 4518.32,8202.03 4468.77,8301.98 4452.63,8334.91 4444.11,8360.61 4430.91,8443.61 4419.18,8502.85 4414.89,8526.60 4414.52,8553.44 4416.13,8578.33 4413.25,8597.06 4404.20,8613.81 4364.07,8672.67 4345.40,8703.93 4361.13,8710.96 4383.04,8720.26 4397.92,8731.77 4421.70,8769.60 4444.07,8812.16 4449.64,8827.84 4449.85,8849.93 4443.17,8915.89 4440.55,8942.44 4434.01,8966.19 4429.15,8992.46 4426.19,9032.71 4426.96,9060.39 4433.61,9090.89 4438.32,9113.55 4444.46,9129.23 4453.41,9141.28 4472.43,9176.57 4491.16,9212.69 4516.28,9272.05 4528.53,9308.71 4543.53,9365.81 4558.30,9411.98 4573.32,9461.24 4599.48,9551.07 4616.14,9617.38 4625.53,9669.70 4629.37,9698.23 4639.65,9740.76 4655.17,9809.03 4673.99,9906.11 4686.96,9979.12 4701.06,10056.04 4715.80,10107.53 4750.11,10195.99 4781.65,10270.74 4796.17,10302.65 4817.43,10337.96 4847.94,10384.18 4863.59,10414.43 4871.67,10438.21 4872.68,10474.28 4871.97,10517.89 4870.12,10567.65 4866.96,10586.94 4859.02,10609.55 4836.64,10656.73 4821.38,10681.00 4808.12,10692.70 4792.06,10706.34 4782.17,10720.01 4773.10,10738.71 4751.80,10805.46 4737.06,10840.64 4731.39,10854.04 4725.97,10878.63 4721.73,10885.32 4716.65,10889.50 4705.96,10891.14 4691.87,10897.80 4682.56,10906.73 4675.50,10919.00 4664.51,10925.11 4659.97,10936.00 4657.67,10953.04 4655.86,10988.83 4656.02,11027.13 4649.80,11036.89 4628.65,11053.32 4605.82,11071.42 4570.04,11090.87 4539.64,11097.49 4488.71,11107.10 4463.67,11109.26 4416.16,11101.83 4338.85,11092.64 4291.61,11090.53 4222.15,11090.59 4192.08,11084.90 4103.87,11054.42 4054.11,11049.24 4016.17,11041.01 3992.27,11037.58 3978.47,11041.45 3966.94,11045.88 3949.73,11062.04 3929.70,11079.03 3912.51,11090.44 3880.68,11106.27 3842.96,11118.46 3798.19,11133.12 3775.95,11142.28 3758.20,11153.12 3740.14,11172.64 3728.86,11179.88 3697.34,11187.60 3534.08,11234.32 3469.34,11252.30 3398.67,11279.19 3222.93,11357.19 3108.87,11408.54 3029.74,11444.65 2984.39,11468.54 2921.26,11509.15 2872.53,11531.93 2795.08,11569.71 2721.87,11597.43 2625.61,11625.36 2565.92,11648.95 2424.25,11715.87 2322.00,11769.23 2109.34,11879.55 2008.79,11931.52 1989.91,11943.76 1983.70,11950.17 1980.29,11961.62 1982.43,11995.73 1991.14,12091.64 1995.38,12174.96 1995.58,12201.24 1986.19,12234.20 1980.51,12254.87 1967.54,12357.70 1961.49,12404.08 1959.13,12437.06 1962.26,12519.25 1967.79,12640.31 1973.14,12730.06 1972.22,12753.54 1968.53,12767.51 1957.19,12794.86 1891.70,12968.53 1815.15,13170.11 1752.78,13333.73 1706.01,13455.46 1681.92,13519.12 1656.78,13586.65 1631.87,13652.02 1608.64,13712.32 1601.33,13730.48 1578.89,13786.30 1543.18,13874.79 1519.08,13939.57 1485.07,14028.63 1469.21,14067.16 1461.30,14078.31 1453.11,14088.64 1437.05,14101.45 1416.20,14114.79 1394.22,14129.54 1380.68,14140.40 1351.67,14160.43 1292.50,14197.43 1264.05,14216.07 1255.59,14223.59 1247.94,14242.58 1233.19,14282.51 1212.78,14336.94 1194.94,14377.14 1174.87,14415.38 1168.37,14425.14 1149.48,14442.13 1110.02,14474.15 1097.32,14490.61 1073.61,14520.16 1051.59,14548.05 1031.53,14578.18 1017.94,14609.72 1006.89,14637.07 1000.97,14644.60 990.55,14648.20 977.34,14649.84 954.83,14651.44 930.99,14651.48">
        <lane id="-414208225_0" index="0" disallow="tram rail_urban rail rail_electric ship" speed="22.22" length="15014.05" shape="8817.97,4534.89 8751.78,4632.70 8690.70,4723.37 8618.87,4829.68 8564.59,4909.48 8497.86,5008.52 8456.01,5071.85 8415.23,5134.69 8390.79,5165.56 8372.04,5181.54 8341.09,5207.09 8326.65,5223.26 8297.84,5286.98 8269.05,5349.55 8266.75,5375.67 8271.33,5426.04 8279.61,5460.84 8294.90,5507.54 8305.02,5538.61 8304.38,5552.37 8299.54,5563.11 8288.77,5571.07 8272.88,5575.04 8231.21,5580.49 8200.23,5587.59 8178.00,5598.69 8172.48,5607.76 8170.27,5621.76 8174.04,5658.99 8180.66,5701.57 8183.28,5760.57 8180.04,5778.67 8165.12,5803.01 8153.91,5817.76 8140.56,5827.78 8107.09,5840.06 8068.00,5854.45 8013.17,5878.82 7959.47,5908.21 7877.48,5963.55 7709.99,6074.83 7528.14,6198.92 7417.59,6274.90 7360.02,6311.94 7260.82,6369.48 7216.84,6398.68 7177.33,6422.63 7129.16,6449.30 7037.02,6509.09 6860.82,6623.42 6744.11,6700.21 6568.18,6814.56 6494.60,6861.57 6412.00,6915.26 6292.48,6990.09 6220.89,7036.26 6178.95,7064.04 6164.73,7075.32 6149.89,7091.92 6094.27,7159.10 6041.75,7222.94 5994.25,7283.24 5981.58,7296.03 5953.73,7310.61 5888.63,7343.96 5717.59,7429.81 5540.94,7517.87 5374.42,7601.20 5160.29,7707.60 4967.58,7802.60 4867.28,7851.21 4739.66,7914.55 4638.53,7963.99 4620.24,7973.28 4610.16,7985.38 4592.43,8026.16 4564.05,8106.01 4547.29,8148.55 4519.79,8202.77 4470.25,8302.70 4454.16,8335.54 4445.72,8361.00 4432.53,8443.90 4420.81,8503.16 4416.54,8526.76 4416.17,8553.40 4417.79,8578.41 4414.84,8597.59 4405.61,8614.67 4365.46,8673.56 4347.77,8703.18 4361.79,8709.45 4383.88,8718.83 4399.16,8730.65 4423.13,8768.77 4445.59,8811.50 4451.29,8827.55 4451.50,8850.00 4444.81,8916.06 4442.18,8942.74 4435.62,8966.56 4430.78,8992.67 4427.85,9032.74 4428.60,9060.19 4435.22,9090.55 4439.91,9113.08 4445.91,9128.42 4454.81,9140.40 4473.89,9175.80 4492.65,9211.99 4517.82,9271.47 4530.12,9308.24 4545.12,9365.34 4559.87,9411.48 4574.90,9460.76 4601.07,9550.63 4617.75,9617.04 4627.16,9669.44 4630.99,9697.92 4641.25,9740.38 4656.79,9808.69 4675.61,9905.80 4688.59,9978.82 4702.67,10055.66 4717.37,10107.01 4751.64,10195.37 4783.16,10270.07 4797.64,10301.88 4818.83,10337.08 4849.37,10383.34 4865.11,10413.78 4873.31,10437.92 4874.33,10474.27 4873.62,10517.93 4871.76,10567.81 4868.57,10587.35 4860.54,10610.18 4838.09,10657.53 4822.65,10682.08 4809.20,10693.95 4793.28,10707.47 4783.59,10720.86 4774.64,10739.33 4753.35,10806.03 4738.58,10841.28 4732.97,10854.55 4727.51,10879.26 4722.98,10886.42 4717.35,10891.06 4706.45,10892.74 4692.82,10899.18 4683.87,10907.75 4676.70,10920.22 4665.81,10926.28 4661.58,10936.43 4659.31,10953.20 4657.51,10988.86 4657.67,11027.60 4651.04,11038.02 4629.67,11054.62 4606.73,11072.80 4570.62,11092.43 4539.97,11099.10 4488.94,11108.74 4463.61,11110.92 4415.94,11103.47 4338.72,11094.29 4291.58,11092.18 4222.00,11092.24 4191.65,11086.50 4103.51,11056.04 4053.85,11050.87 4015.88,11042.63 3992.39,11039.26 3978.99,11043.02 3967.83,11047.31 3950.83,11063.27 3930.70,11080.35 3913.34,11091.87 3881.31,11107.80 3843.47,11120.03 3798.77,11134.67 3776.70,11143.76 3759.26,11154.41 3741.21,11173.92 3729.52,11181.41 3697.77,11189.19 3534.53,11235.91 3469.85,11253.87 3399.30,11280.71 3223.61,11358.70 3109.56,11410.05 3030.46,11446.13 2985.22,11469.96 2922.06,11510.60 2873.25,11533.42 2795.74,11571.22 2722.40,11599.00 2626.14,11626.92 2566.57,11650.46 2424.98,11717.35 2322.77,11770.69 2110.10,11881.02 2009.62,11932.94 1990.96,11945.04 1985.17,11951.03 1981.96,11961.81 1984.07,11995.60 1992.79,12091.52 1997.03,12174.91 1997.23,12201.47 1987.78,12234.65 1982.13,12255.19 1969.17,12357.91 1963.13,12404.24 1960.79,12437.08 1963.91,12519.19 1969.43,12640.22 1974.79,12730.05 1973.86,12753.79 1970.09,12768.04 1958.73,12795.47 1893.24,12969.11 1816.69,13170.70 1754.33,13334.32 1707.55,13456.05 1683.47,13519.69 1658.33,13587.23 1633.41,13652.61 1610.17,13712.93 1602.86,13731.10 1580.42,13786.91 1544.72,13875.39 1520.63,13940.15 1486.61,14029.24 1470.66,14067.96 1462.62,14079.30 1454.29,14089.81 1438.01,14102.79 1417.10,14116.17 1395.20,14130.88 1381.67,14141.73 1352.57,14161.81 1293.39,14198.82 1265.05,14217.38 1256.97,14224.57 1249.48,14243.17 1234.74,14283.08 1214.31,14337.57 1196.43,14377.86 1176.29,14416.22 1169.63,14426.23 1150.55,14443.39 1111.21,14475.31 1098.61,14491.63 1074.90,14521.19 1052.93,14549.02 1032.99,14578.97 1019.47,14610.35 1008.34,14637.91 1001.97,14646.00 990.92,14649.81 977.50,14651.48 954.89,14653.09 930.99,14653.13"/>
    </edge>
    <edge id="246365988#0" from="2534123307" to="4153803930" priority="9" type="highway.primary" shape="0.00,150.47 446.96,30.59 693.11,0.00 854.87,34.05 1195.73,214.33 2016.83,778.29 2724.39,1242.90 3198.02,1563.03 3780.88,1936.65 4409.08,2338.73 4823.35,2627.48 4916.73,2671.41 4979.89,2699.92 5215.34,2767.14 6011.84,2970.23 6135.84,3013.26 6245.34,3013.74 6448.40,2936.55 6697.04,2827.06 6810.97,2818.83 6897.11,2839.03 7000.13,2893.18 7563.62,3500.88 8307.22,4309.32 8388.47,4376.72 8507.21,4437.76 8651.34,4480.55 8821.96,4526.04">
        <lane id="246365988#0_0" index="0" disallow="tram rail_urban rail rail_electric ship" speed="27.78" length="10394.91" shape="-1.28,145.69 446.01,25.72 693.32,-5.01 856.57,29.35 1198.30,210.09 2019.59,774.18 2727.13,1238.78 3200.74,1558.90 3783.55,1932.48 4411.83,2334.61 4825.83,2623.18 4918.81,2666.92 4981.59,2695.26 5216.63,2762.36 6013.27,2965.48 6136.68,3008.32 6244.44,3008.78 6446.52,2931.97 6695.83,2822.18 6811.36,2813.84 6898.85,2834.36 7003.18,2889.20 7567.26,3497.52 8310.64,4305.73 8391.22,4372.56 8509.06,4433.14 8652.68,4475.78 8816.26,4519.40"/>
        <lane id="246365988#0_1" index="1" disallow="tram rail_urban rail rail_electric ship" speed="27.78" length="10394.91" shape="-0.43,148.88 446.64,28.97 693.18,-1.67 855.44,32.48 1196.59,212.92 2017.75,776.92 2725.30,1241.53 3198.93,1561.65 3781.77,1935.26 4410.00,2337.36 4824.18,2626.05 4917.43,2669.92 4980.46,2698.37 5215.77,2765.55 6012.32,2968.65 6136.12,3011.61 6245.04,3012.08 6447.77,2935.02 6696.64,2825.43 6811.10,2817.16 6897.69,2837.48 7001.14,2891.85 7564.83,3499.76 8308.36,4308.13 8389.39,4375.33 8507.83,4436.22 8651.79,4478.96 8815.41,4522.59"/>
    </edge>
    <edge id="246365988#1" from="4153803930" to="2383851366" priority="9" type="highway.primary" shape="8821.96,4526.04 9282.43,4644.94 9443.55,4686.55 9550.72,4709.53 9633.92,4730.17 9717.74,4735.16 10502.51,4652.80 11438.58,4558.15 12420.20,4451.03 12689.87,4421.61">
        <lane id="246365988#1_0" index="0" disallow="tram rail_urban rail rail_electric ship" speed="27.78" length="3906.11" shape="8825.73,4521.90 9283.67,4640.15 9444.69,4681.74 9551.83,4704.70 9634.67,4725.25 9717.63,4730.20 10502.01,4647.88 11438.07,4553.23 12419.66,4446.11 12689.33,4416.69"/>
        <lane id="246365988#1_1" index="1" disallow="tram rail_urban rail rail_electric ship" speed="27.78" length="3906.11" shape="8824.90,4525.10 9282.85,4643.34 9443.93,4684.95 9551.09,4707.92 9634.17,4728.53 9717.70,4733.51 10502.34,4651.16 11438.41,4556.51 12420.02,4449.39 12689.69,4419.97"/>
    </edge>
    <edge id="414208225" from="4153782853" to="4153803930" priority="6" type="highway.tertiary" shape="930.99,14651.48 954.83,14651.44 977.34,14649.84 990.55,14648.20 1000.97,14644.60 1006.89,14637.07 1017.94,14609.72 1031.53,14578.18 1051.59,14548.05 1073.61,14520.16 1097.32,14490.61 1110.02,14474.15 1149.48,14442.13 1168.37,14425.14 1174.87,14415.38 1194.94,14377.14 1212.78,14336.94 1233.19,14282.51 1247.94,14242.58 1255.59,14223.59 1264.05,14216.07 1292.50,14197.43 1351.67,14160.43 1380.68,14140.40 1394.22,14129.54 1416.20,14114.79 1437.05,14101.45 1453.11,14088.64 1461.30,14078.31 1469.21,14067.16 1485.07,14028.63 1519.08,13939.57 1543.18,13874.79 1578.89,13786.30 1601.33,13730.48 1608.64,13712.32 1631.87,13652.02 1656.78,13586.65 1681.92,13519.12 1706.01,13455.46 1752.78,13333.73 1815.15,13170.11 1891.70,12968.53 1957.19,12794.86 1968.53,12767.51 1972.22,12753.54 1973.14,12730.06 1967.79,12640.31 1962.26,12519.25 1959.13,12437.06 1961.49,12404.08 1967.54,12357.70 1980.51,12254.87 1986.19,12234.20 1995.58,12201.24 1995.38,12174.96 1991.14,12091.64 1982.43,11995.73 1980.29,11961.62 1983.70,11950.17 1989.91,11943.76 2008.79,11931.52 2109.34,11879.55 2322.00,11769.23 2424.25,11715.87 2565.92,11648.95 2625.61,11625.36 2721.87,11597.43 2795.08,11569.71 2872.53,11531.93 2921.26,11509.15 2984.39,11468.54 3029.74,11444.65 3108.87,11408.54 3222.93,11357.19 3398.67,11279.19 3469.34,11252.30 3534.08,11234.32 3697.34,11187.60 3728.86,11179.88 3740.14,11172.64 3758.20,11153.12 3775.95,11142.28 3798.19,11133.12 3842.96,11118.46 3880.68,11106.27 3912.51,11090.44 3929.70,11079.03 3949.73,11062.04 3966.94,11045.88 3978.47,11041.45 3992.27,11037.58 4016.17,11041.01 4054.11,11049.24 4103.87,11054.42 4192.08,11084.90 4222.15,11090.59 4291.61,11090.53 4338.85,11092.64 4416.16,11101.83 4463.67,11109.26 4488.71,11107.10 4539.64,11097.49 4570.04,11090.87 4605.82,11071.42 4628.65,11053.32 4649.80,11036.89 4656.02,11027.13 4655.86,10988.83 4657.67,10953.04 4659.97,10936.00 4664.51,10925.11 4675.50,10919.00 4682.56,10906.73 4691.87,10897.80 4705.96,10891.14 4716.65,10889.50 4721.73,10885.32 4725.97,10878.63 4731.39,10854.04 4737.06,10840.64 4751.80,10805.46 4773.10,10738.71 4782.17,10720.01 4792.06,10706.34 4808.12,10692.70 4821.38,10681.00 4836.64,10656.73 4859.02,10609.55 4866.96,10586.94 4870.12,10567.65 4871.97,10517.89 4872.68,10474.28 4871.67,10438.21 4863.59,10414.43 4847.94,10384.18 4817.43,10337.96 4796.17,10302.65 4781.65,10270.74 4750.11,10195.99 4715.80,10107.53 4701.06,10056.04 4686.96,9979.12 4673.99,9906.11 4655.17,9809.03 4639.65,9740.76 4629.37,9698.23 4625.53,9669.70 4616.14,9617.38 4599.48,9551.07 4573.32,9461.24 4558.30,9411.98 4543.53,9365.81 4528.53,9308.71 4516.28,9272.05 4491.16,9212.69 4472.43,9176.57 4453.41,9141.28 4444.46,9129.23 4438.32,9113.55 4433.61,9090.89 4426.96,9060.39 4426.19,9032.71 4429.15,8992.46 4434.01,8966.19 4440.55,8942.44 4443.17,8915.89 4449.85,8849.93 4449.64,8827.84 4444.07,8812.16 4421.70,8769.60 4397.92,8731.77 4383.04,8720.26 4361.13,8710.96 4345.40,8703.93 4364.07,8672.67 4404.20,8613.81 4413.25,8597.06 4416.13,8578.33 4414.52,8553.44 4414.89,8526.60 4419.18,8502.85 4430.91,8443.61 4444.11,8360.61 4452.63,8334.91 4468.77,8301.98 4518.32,8202.03 4545.78,8147.87 4562.51,8105.43 4590.89,8025.55 4608.75,7984.51 4619.19,7971.96 4637.79,7962.52 4738.93,7913.07 4866.55,7849.73 4966.85,7801.12 5159.56,7706.12 5373.69,7599.73 5540.20,7516.39 5716.86,7428.33 5887.88,7342.49 5952.97,7309.14 5980.59,7294.69 5993.01,7282.15 6040.46,7221.91 6093.00,7158.05 6148.64,7090.85 6163.59,7074.12 6177.98,7062.70 6219.99,7034.88 6291.59,6988.69 6411.11,6913.87 6493.71,6860.18 6567.29,6813.17 6743.20,6698.83 6859.92,6622.04 7036.12,6507.70 7128.31,6447.89 7176.50,6421.20 7215.96,6397.29 7259.95,6368.08 7359.16,6310.53 7416.68,6273.53 7527.21,6197.56 7709.07,6073.46 7876.56,5962.17 7958.61,5906.80 8012.44,5877.34 8067.38,5852.92 8106.53,5838.51 8139.76,5826.32 8152.74,5816.58 8163.76,5802.08 8178.47,5778.07 8181.63,5760.46 8179.02,5701.74 8172.41,5659.20 8168.60,5621.72 8170.90,5607.18 8176.84,5597.42 8199.67,5586.02 8230.91,5578.86 8272.57,5573.41 8288.06,5569.55 8298.21,5562.04 8302.75,5551.98 8303.36,5538.84 8293.33,5508.05 8278.02,5461.29 8269.70,5426.30 8265.09,5375.67 8267.44,5349.12 8296.34,5286.30 8325.25,5222.35 8339.94,5205.90 8370.98,5180.28 8389.60,5164.40 8413.89,5133.72 8454.63,5070.94 8496.48,5007.60 8563.22,4908.56 8617.50,4828.76 8689.33,4722.45 8750.41,4631.77 8821.96,4526.04">