<?xml version="1.0" encoding="UTF-8"?>

<!-- generated on 03/19/18 14:18:28 by SUMO duarouter Version 0.32.0
<?xml version="1.0" encoding="UTF-8"?>

<configuration xmlns:xsi="http://www.w3.org/2001/XMLSchema-instance" xsi:noNamespaceSchemaLocation="http://sumo.dlr.de/xsd/duarouterConfiguration.xsd">

    <input>
        <net-file value="high.net.xml"/>
        <route-files value="trips.trips.xml"/>
    </input>

    <output>
        <output-file value="high.rou.xml"/>
        <alternatives-output value="high.rou.alt.xml"/>
    </output>

    <processing>
        <ignore-errors value="true"/>
    </processing>

    <time>
        <begin value="0"/>
        <end value="25.0"/>
    </time>

    <report>
        <no-warnings value="true"/>
        <no-step-log value="true"/>
    </report>

</configuration>
-->

<routes xmlns:xsi="http://www.w3.org/2001/XMLSchema-instance" xsi:noNamespaceSchemaLocation="http://sumo.dlr.de/xsd/routes_file.xsd">
    <vehicle id="0" depart="0.00">
        <route edges="246365988#0 -246365988#0"/>
    </vehicle>
    <vehicle id="1" depart="1.00">
        <route edges="414208225 -414208225"/>
    </vehicle>
    <vehicle id="2" depart="2.00">
        <route edges="246365988#0 -414208225"/>
    </vehicle>
    <vehicle id="3" depart="3.00">
        <route edges="414208225 -246365988#0"/>
    </vehicle>
    <vehicle id="4" depart="4.00">
        <route edges="414208225 -414208225"/>
    </vehicle>
    <vehicle id="5" depart="5.00">
        <route edges="414208225 -414208225"/>
    </vehicle>
    <vehicle id="6" depart="6.00">
        <route edges="246365988#0 -246365988#0"/>
    </vehicle>
    <vehicle id="7" depart="7.00">
        <route edges="246365988#0 -246365988#0"/>
    </vehicle>
    <vehicle id="8" depart="8.00">
        <route edges="-246365988#1 -414208225"/>
    </vehicle>
    <vehicle id="9" depart="9.00">
        <route edges="414208225 -414208225"/>
    </vehicle>
    <vehicle id="10" depart="10.00">
        <route edges="414208225 -414208225"/>
    </vehicle>
    <vehicle id="11" depart="11.00">
        <route edges="246365988#0 246365988#1"/>
    </vehicle>
    <vehicle id="12" depart="12.00">
        <route edges="414208225 -414208225"/>
    </vehicle>
    <vehicle id="13" depart="13.00">
        <route edges="414208225 -414208225"/>
    </vehicle>
    <vehicle id="14" depart="14.00">
        <route edges="414208225 246365988#1"/>
    </vehicle>
    <vehicle id="15" depart="15.00">
        <route edges="414208225 -414208225"/>
    </vehicle>
    <vehicle id="16" depart="16.00">
        <route edges="246365988#0 -246365988#0"/>
    </vehicle>
    <vehicle id="17" depart="17.00">
        <route edges="246365988#0 -414208225"/>
    </vehicle>
    <vehicle id="18" depart="18.00">
        <route edges="246365988#0 -246365988#0"/>
    </vehicle>
    <vehicle id="19" depart="19.00">
        <route edges="414208225 -414208225"/>
    </vehicle>
    <vehicle id="20" depart="20.00">
        <route edges="246365988#0 -414208225"/>
    </vehicle>
    <vehicle id="21" depart="21.00">
        <route edges="246365988#0 -246365988#0"/>
    </vehicle>
    <vehicle id="22" depart="22.00">
        <route edges="414208225 -414208225"/>
    </vehicle>
    <vehicle id="23" depart="23.00">
        <route edges="-246365988#1 246365988#1"/>
    </vehicle>
    <vehicle id="24" depart="24.00">
        <route edges="246365988#0 -246365988#0"/>
    </vehicle>
</routes>
